REMARK SMILES COC(=O)CC1C2CC3CC1CC(C)(C3)C2
REMARK SMILES IDX 3 1 4 2 5 3 6 4 13 5 16 6 15 7 12 8 7 9 9 10 11 11 8 12
REMARK SMILES IDX 10 13 14 14 2 15 1 16
REMARK H PARENT
ROOT
ATOM      1  C   UNL     1       3.084  -0.068   0.229  1.00  0.00     0.305 C 
ATOM      2  O   UNL     1       3.370  -0.929  -0.591  1.00  0.00    -0.252 OA
ENDROOT
BRANCH   1   3
ATOM      3  C   UNL     1       1.841   0.795   0.203  1.00  0.00     0.126 C 
BRANCH   3   4
ATOM      4  C   UNL     1       0.741   0.233  -0.718  1.00  0.00     0.006 C 
ATOM      5  C   UNL     1      -1.844   0.213   0.813  1.00  0.00    -0.032 C 
ATOM      6  C   UNL     1      -1.200   1.525   0.307  1.00  0.00     0.010 C 
ATOM      7  C   UNL     1      -2.768  -0.342  -0.296  1.00  0.00     0.010 C 
ATOM      8  C   UNL     1      -0.728  -0.822   1.085  1.00  0.00     0.010 C 
ATOM      9  C   UNL     1      -0.384   1.269  -0.974  1.00  0.00    -0.006 C 
ATOM     10  C   UNL     1      -1.962  -0.606  -1.579  1.00  0.00    -0.010 C 
ATOM     11  C   UNL     1       0.096  -1.078  -0.192  1.00  0.00    -0.006 C 
ATOM     12  C   UNL     1      -1.330   0.712  -2.056  1.00  0.00     0.007 C 
ATOM     13  C   UNL     1      -0.851  -1.626  -1.279  1.00  0.00     0.007 C 
ATOM     14  C   UNL     1      -2.648   0.474   2.090  1.00  0.00     0.011 C 
ENDBRANCH   3   4
ENDBRANCH   1   3
BRANCH   1  15
ATOM     15  O   UNL     1       3.859   0.285   1.294  1.00  0.00    -0.469 OA
ATOM     16  C   UNL     1       5.071  -0.462   1.403  1.00  0.00     0.282 C 
ENDBRANCH   1  15
TORSDOF 3
