MODEL 1
REMARK VINA RESULT:    -6.736      0.000      0.000
REMARK INTER + INTRA:          -8.832
REMARK INTER:                  -8.311
REMARK INTRA:                  -0.521
REMARK UNBOUND:                -0.521
REMARK SMILES COC(=O)CC1C(=O)CCC1C12CC3CC(CC(C3)C1)C2
REMARK SMILES IDX 3 1 4 2 2 3 1 4 5 5 6 6 11 7 7 8 10 9 9 10 8 11 12 12 21 13
REMARK SMILES IDX 20 14 13 15 16 16 18 17 14 18 15 19 17 20 19 21
REMARK H PARENT
ROOT
ATOM      1  C   UNL     1      11.205   1.883  15.754  1.00  0.00     0.306 C 
ATOM      2  O   UNL     1      11.086   1.678  16.957  1.00  0.00    -0.252 OA
ENDROOT
BRANCH   1   3
ATOM      3  O   UNL     1      12.389   1.917  15.085  1.00  0.00    -0.469 OA
ATOM      4  C   UNL     1      13.482   1.364  15.817  1.00  0.00     0.282 C 
ENDBRANCH   1   3
BRANCH   1   5
ATOM      5  C   UNL     1      10.021   2.005  14.816  1.00  0.00     0.134 C 
BRANCH   5   6
ATOM      6  C   UNL     1       9.882   0.869  13.817  1.00  0.00     0.071 C 
ATOM      7  C   UNL     1       9.259  -0.494  14.248  1.00  0.00     0.007 C 
ATOM      8  C   UNL     1       9.035   1.227  12.614  1.00  0.00     0.136 C 
ATOM      9  C   UNL     1       8.961  -1.113  12.857  1.00  0.00     0.013 C 
ATOM     10  C   UNL     1       8.435   0.010  11.970  1.00  0.00     0.076 C 
ATOM     11  O   UNL     1       8.876   2.363  12.187  1.00  0.00    -0.299 OA
BRANCH   7  12
ATOM     12  C   UNL     1       8.067  -0.565  15.285  1.00  0.00    -0.025 C 
ATOM     13  C   UNL     1       7.100  -1.739  14.905  1.00  0.00     0.011 C 
ATOM     14  C   UNL     1       8.595  -0.897  16.716  1.00  0.00     0.011 C 
ATOM     15  C   UNL     1       7.207   0.722  15.368  1.00  0.00     0.011 C 
ATOM     16  C   UNL     1       5.953  -1.895  15.920  1.00  0.00    -0.010 C 
ATOM     17  C   UNL     1       7.452  -1.046  17.734  1.00  0.00    -0.010 C 
ATOM     18  C   UNL     1       6.067   0.572  16.397  1.00  0.00    -0.010 C 
ATOM     19  C   UNL     1       5.150  -0.586  15.972  1.00  0.00     0.007 C 
ATOM     20  C   UNL     1       6.534  -2.194  17.304  1.00  0.00     0.007 C 
ATOM     21  C   UNL     1       6.655   0.267  17.781  1.00  0.00     0.007 C 
ENDBRANCH   7  12
ENDBRANCH   5   6
ENDBRANCH   1   5
TORSDOF 4
ENDMDL
MODEL 2
REMARK VINA RESULT:    -6.554      0.090      1.643
REMARK INTER + INTRA:          -8.607
REMARK INTER:                  -8.291
REMARK INTRA:                  -0.316
REMARK UNBOUND:                -0.521
REMARK SMILES COC(=O)CC1C(=O)CCC1C12CC3CC(CC(C3)C1)C2
REMARK SMILES IDX 3 1 4 2 2 3 1 4 5 5 6 6 11 7 7 8 10 9 9 10 8 11 12 12 21 13
REMARK SMILES IDX 20 14 13 15 16 16 18 17 14 18 15 19 17 20 19 21
REMARK H PARENT
ROOT
ATOM      1  C   UNL     1      11.161   1.870  15.772  1.00  0.00     0.306 C 
ATOM      2  O   UNL     1      11.094   1.618  16.969  1.00  0.00    -0.252 OA
ENDROOT
BRANCH   1   3
ATOM      3  O   UNL     1      12.319   2.014  15.072  1.00  0.00    -0.469 OA
ATOM      4  C   UNL     1      13.422   1.299  15.628  1.00  0.00     0.282 C 
ENDBRANCH   1   3
BRANCH   1   5
ATOM      5  C   UNL     1       9.944   1.935  14.871  1.00  0.00     0.134 C 
BRANCH   5   6
ATOM      6  C   UNL     1       9.852   0.819  13.845  1.00  0.00     0.071 C 
ATOM      7  C   UNL     1       9.260  -0.570  14.235  1.00  0.00     0.007 C 
ATOM      8  C   UNL     1       9.015   1.181  12.636  1.00  0.00     0.136 C 
ATOM      9  C   UNL     1       9.002  -1.165  12.826  1.00  0.00     0.013 C 
ATOM     10  C   UNL     1       8.460  -0.037  11.955  1.00  0.00     0.076 C 
ATOM     11  O   UNL     1       8.832   2.321  12.233  1.00  0.00    -0.299 OA
BRANCH   7  12
ATOM     12  C   UNL     1       8.054  -0.697  15.250  1.00  0.00    -0.025 C 
ATOM     13  C   UNL     1       8.600  -0.966  16.695  1.00  0.00     0.011 C 
ATOM     14  C   UNL     1       7.261   0.644  15.340  1.00  0.00     0.011 C 
ATOM     15  C   UNL     1       7.053  -1.835  14.924  1.00  0.00     0.011 C 
ATOM     16  C   UNL     1       7.469  -1.035  17.737  1.00  0.00    -0.010 C 
ATOM     17  C   UNL     1       6.125   0.577  16.375  1.00  0.00    -0.010 C 
ATOM     18  C   UNL     1       5.911  -1.895  15.960  1.00  0.00    -0.010 C 
ATOM     19  C   UNL     1       6.502  -2.166  17.352  1.00  0.00     0.007 C 
ATOM     20  C   UNL     1       6.716   0.297  17.760  1.00  0.00     0.007 C 
ATOM     21  C   UNL     1       5.163  -0.555  15.982  1.00  0.00     0.007 C 
ENDBRANCH   7  12
ENDBRANCH   5   6
ENDBRANCH   1   5
TORSDOF 4
ENDMDL
MODEL 3
REMARK VINA RESULT:    -6.296      4.536      7.061
REMARK INTER + INTRA:          -8.289
REMARK INTER:                  -7.903
REMARK INTRA:                  -0.386
REMARK UNBOUND:                -0.521
REMARK SMILES COC(=O)CC1C(=O)CCC1C12CC3CC(CC(C3)C1)C2
REMARK SMILES IDX 3 1 4 2 2 3 1 4 5 5 6 6 11 7 7 8 10 9 9 10 8 11 12 12 21 13
REMARK SMILES IDX 20 14 13 15 16 16 18 17 14 18 15 19 17 20 19 21
REMARK H PARENT
ROOT
ATOM      1  C   UNL     1       6.960  -5.221   9.281  1.00  0.00     0.306 C 
ATOM      2  O   UNL     1       6.512  -4.987   8.164  1.00  0.00    -0.252 OA
ENDROOT
BRANCH   1   3
ATOM      3  O   UNL     1       6.959  -6.444   9.878  1.00  0.00    -0.469 OA
ATOM      4  C   UNL     1       6.608  -7.514   9.002  1.00  0.00     0.282 C 
ENDBRANCH   1   3
BRANCH   1   5
ATOM      5  C   UNL     1       7.696  -4.187  10.110  1.00  0.00     0.134 C 
BRANCH   5   6
ATOM      6  C   UNL     1       8.585  -3.249   9.311  1.00  0.00     0.071 C 
ATOM      7  C   UNL     1       8.621  -1.724   9.634  1.00  0.00     0.007 C 
ATOM      8  C   UNL     1      10.053  -3.612   9.377  1.00  0.00     0.136 C 
ATOM      9  C   UNL     1       9.917  -1.315   8.885  1.00  0.00     0.013 C 
ATOM     10  C   UNL     1      10.935  -2.426   9.111  1.00  0.00     0.076 C 
ATOM     11  O   UNL     1      10.483  -4.738   9.589  1.00  0.00    -0.299 OA
BRANCH   7  12
ATOM     12  C   UNL     1       8.506  -1.192  11.119  1.00  0.00    -0.025 C 
ATOM     13  C   UNL     1       8.966   0.306  11.184  1.00  0.00     0.011 C 
ATOM     14  C   UNL     1       7.021  -1.201  11.598  1.00  0.00     0.011 C 
ATOM     15  C   UNL     1       9.357  -1.973  12.151  1.00  0.00     0.011 C 
ATOM     16  C   UNL     1       8.814   0.895  12.598  1.00  0.00    -0.010 C 
ATOM     17  C   UNL     1       6.866  -0.619  13.013  1.00  0.00    -0.010 C 
ATOM     18  C   UNL     1       9.193  -1.392  13.571  1.00  0.00    -0.010 C 
ATOM     19  C   UNL     1       9.663   0.071  13.579  1.00  0.00     0.007 C 
ATOM     20  C   UNL     1       7.343   0.836  13.020  1.00  0.00     0.007 C 
ATOM     21  C   UNL     1       7.717  -1.450  13.987  1.00  0.00     0.007 C 
ENDBRANCH   7  12
ENDBRANCH   5   6
ENDBRANCH   1   5
TORSDOF 4
ENDMDL
MODEL 4
REMARK VINA RESULT:    -6.283      5.437      8.430
REMARK INTER + INTRA:          -8.274
REMARK INTER:                  -8.023
REMARK INTRA:                  -0.250
REMARK UNBOUND:                -0.521
REMARK SMILES COC(=O)CC1C(=O)CCC1C12CC3CC(CC(C3)C1)C2
REMARK SMILES IDX 3 1 4 2 2 3 1 4 5 5 6 6 11 7 7 8 10 9 9 10 8 11 12 12 21 13
REMARK SMILES IDX 20 14 13 15 16 16 18 17 14 18 15 19 17 20 19 21
REMARK H PARENT
ROOT
ATOM      1  C   UNL     1       7.725  -0.898  11.762  1.00  0.00     0.306 C 
ATOM      2  O   UNL     1       7.281  -1.265  12.844  1.00  0.00    -0.252 OA
ENDROOT
BRANCH   1   3
ATOM      3  O   UNL     1       8.579   0.147  11.587  1.00  0.00    -0.469 OA
ATOM      4  C   UNL     1       8.514   1.126  12.624  1.00  0.00     0.282 C 
ENDBRANCH   1   3
BRANCH   1   5
ATOM      5  C   UNL     1       7.475  -1.647  10.468  1.00  0.00     0.134 C 
BRANCH   5   6
ATOM      6  C   UNL     1       7.704  -3.146  10.548  1.00  0.00     0.071 C 
ATOM      7  C   UNL     1       7.214  -4.086   9.404  1.00  0.00     0.007 C 
ATOM      8  C   UNL     1       9.166  -3.526  10.652  1.00  0.00     0.136 C 
ATOM      9  C   UNL     1       8.024  -5.367   9.734  1.00  0.00     0.013 C 
ATOM     10  C   UNL     1       9.419  -4.920  10.154  1.00  0.00     0.076 C 
ATOM     11  O   UNL     1      10.041  -2.805  11.113  1.00  0.00    -0.299 OA
BRANCH   7  12
ATOM     12  C   UNL     1       7.258  -3.633   7.889  1.00  0.00    -0.025 C 
ATOM     13  C   UNL     1       7.419  -4.888   6.963  1.00  0.00     0.011 C 
ATOM     14  C   UNL     1       5.911  -2.966   7.469  1.00  0.00     0.011 C 
ATOM     15  C   UNL     1       8.414  -2.661   7.540  1.00  0.00     0.011 C 
ATOM     16  C   UNL     1       7.404  -4.511   5.471  1.00  0.00    -0.010 C 
ATOM     17  C   UNL     1       5.895  -2.581   5.981  1.00  0.00    -0.010 C 
ATOM     18  C   UNL     1       8.390  -2.271   6.048  1.00  0.00    -0.010 C 
ATOM     19  C   UNL     1       8.556  -3.534   5.190  1.00  0.00     0.007 C 
ATOM     20  C   UNL     1       6.071  -3.841   5.127  1.00  0.00     0.007 C 
ATOM     21  C   UNL     1       7.049  -1.604   5.708  1.00  0.00     0.007 C 
ENDBRANCH   7  12
ENDBRANCH   5   6
ENDBRANCH   1   5
TORSDOF 4
ENDMDL
MODEL 5
REMARK VINA RESULT:    -6.232      2.884      5.649
REMARK INTER + INTRA:          -8.210
REMARK INTER:                  -8.024
REMARK INTRA:                  -0.186
REMARK UNBOUND:                -0.521
REMARK SMILES COC(=O)CC1C(=O)CCC1C12CC3CC(CC(C3)C1)C2
REMARK SMILES IDX 3 1 4 2 2 3 1 4 5 5 6 6 11 7 7 8 10 9 9 10 8 11 12 12 21 13
REMARK SMILES IDX 20 14 13 15 16 16 18 17 14 18 15 19 17 20 19 21
REMARK H PARENT
ROOT
ATOM      1  C   UNL     1       6.784  -1.735  16.133  1.00  0.00     0.306 C 
ATOM      2  O   UNL     1       6.223  -2.695  16.648  1.00  0.00    -0.252 OA
ENDROOT
BRANCH   1   3
ATOM      3  O   UNL     1       7.376  -0.721  16.822  1.00  0.00    -0.469 OA
ATOM      4  C   UNL     1       6.457   0.105  17.536  1.00  0.00     0.282 C 
ENDBRANCH   1   3
BRANCH   1   5
ATOM      5  C   UNL     1       7.004  -1.609  14.639  1.00  0.00     0.134 C 
BRANCH   5   6
ATOM      6  C   UNL     1       7.876  -0.436  14.222  1.00  0.00     0.071 C 
ATOM      7  C   UNL     1       8.982  -0.616  13.139  1.00  0.00     0.007 C 
ATOM      8  C   UNL     1       7.087   0.730  13.665  1.00  0.00     0.136 C 
ATOM      9  C   UNL     1       9.265   0.868  12.785  1.00  0.00     0.013 C 
ATOM     10  C   UNL     1       7.921   1.586  12.756  1.00  0.00     0.076 C 
ATOM     11  O   UNL     1       5.920   0.976  13.940  1.00  0.00    -0.299 OA
BRANCH   7  12
ATOM     12  C   UNL     1       8.774  -1.576  11.898  1.00  0.00    -0.025 C 
ATOM     13  C   UNL     1       9.011  -0.782  10.567  1.00  0.00     0.011 C 
ATOM     14  C   UNL     1       9.832  -2.724  11.902  1.00  0.00     0.011 C 
ATOM     15  C   UNL     1       7.364  -2.210  11.804  1.00  0.00     0.011 C 
ATOM     16  C   UNL     1       8.884  -1.685   9.327  1.00  0.00    -0.010 C 
ATOM     17  C   UNL     1       9.703  -3.632  10.668  1.00  0.00    -0.010 C 
ATOM     18  C   UNL     1       7.241  -3.127  10.569  1.00  0.00    -0.010 C 
ATOM     19  C   UNL     1       7.476  -2.299   9.296  1.00  0.00     0.007 C 
ATOM     20  C   UNL     1       9.928  -2.802   9.400  1.00  0.00     0.007 C 
ATOM     21  C   UNL     1       8.293  -4.242  10.646  1.00  0.00     0.007 C 
ENDBRANCH   7  12
ENDBRANCH   5   6
ENDBRANCH   1   5
TORSDOF 4
ENDMDL
MODEL 6
REMARK VINA RESULT:    -6.132      2.352      4.382
REMARK INTER + INTRA:          -8.086
REMARK INTER:                  -7.758
REMARK INTRA:                  -0.328
REMARK UNBOUND:                -0.521
REMARK SMILES COC(=O)CC1C(=O)CCC1C12CC3CC(CC(C3)C1)C2
REMARK SMILES IDX 3 1 4 2 2 3 1 4 5 5 6 6 11 7 7 8 10 9 9 10 8 11 12 12 21 13
REMARK SMILES IDX 20 14 13 15 16 16 18 17 14 18 15 19 17 20 19 21
REMARK H PARENT
ROOT
ATOM      1  C   UNL     1       7.311   2.555  19.438  1.00  0.00     0.306 C 
ATOM      2  O   UNL     1       7.786   1.935  20.382  1.00  0.00    -0.252 OA
ENDROOT
BRANCH   1   3
ATOM      3  O   UNL     1       6.083   3.143  19.433  1.00  0.00    -0.469 OA
ATOM      4  C   UNL     1       5.370   2.982  18.208  1.00  0.00     0.282 C 
ENDBRANCH   1   3
BRANCH   1   5
ATOM      5  C   UNL     1       8.088   2.858  18.172  1.00  0.00     0.134 C 
BRANCH   5   6
ATOM      6  C   UNL     1       9.345   2.027  17.986  1.00  0.00     0.071 C 
ATOM      7  C   UNL     1       9.250   0.526  17.571  1.00  0.00     0.007 C 
ATOM      8  C   UNL     1      10.279   2.578  16.928  1.00  0.00     0.136 C 
ATOM      9  C   UNL     1      10.711   0.273  17.117  1.00  0.00     0.013 C 
ATOM     10  C   UNL     1      11.165   1.511  16.353  1.00  0.00     0.076 C 
ATOM     11  O   UNL     1      10.337   3.754  16.597  1.00  0.00    -0.299 OA
BRANCH   7  12
ATOM     12  C   UNL     1       8.136   0.016  16.571  1.00  0.00    -0.025 C 
ATOM     13  C   UNL     1       6.982  -0.682  17.371  1.00  0.00     0.011 C 
ATOM     14  C   UNL     1       7.470   1.214  15.825  1.00  0.00     0.011 C 
ATOM     15  C   UNL     1       8.636  -1.002  15.514  1.00  0.00     0.011 C 
ATOM     16  C   UNL     1       5.838  -1.143  16.450  1.00  0.00    -0.010 C 
ATOM     17  C   UNL     1       6.331   0.756  14.898  1.00  0.00    -0.010 C 
ATOM     18  C   UNL     1       7.492  -1.452  14.582  1.00  0.00    -0.010 C 
ATOM     19  C   UNL     1       6.395  -2.132  15.415  1.00  0.00     0.007 C 
ATOM     20  C   UNL     1       5.243   0.070  15.730  1.00  0.00     0.007 C 
ATOM     21  C   UNL     1       6.896  -0.231  13.866  1.00  0.00     0.007 C 
ENDBRANCH   7  12
ENDBRANCH   5   6
ENDBRANCH   1   5
TORSDOF 4
ENDMDL
MODEL 7
REMARK VINA RESULT:    -6.097      2.670      4.465
REMARK INTER + INTRA:          -8.044
REMARK INTER:                  -7.612
REMARK INTRA:                  -0.432
REMARK UNBOUND:                -0.521
REMARK SMILES COC(=O)CC1C(=O)CCC1C12CC3CC(CC(C3)C1)C2
REMARK SMILES IDX 3 1 4 2 2 3 1 4 5 5 6 6 11 7 7 8 10 9 9 10 8 11 12 12 21 13
REMARK SMILES IDX 20 14 13 15 16 16 18 17 14 18 15 19 17 20 19 21
REMARK H PARENT
ROOT
ATOM      1  C   UNL     1       7.750   2.068  20.502  1.00  0.00     0.306 C 
ATOM      2  O   UNL     1       8.386   1.179  21.056  1.00  0.00    -0.252 OA
ENDROOT
BRANCH   1   3
ATOM      3  O   UNL     1       6.936   2.953  21.139  1.00  0.00    -0.469 OA
ATOM      4  C   UNL     1       6.991   2.867  22.563  1.00  0.00     0.282 C 
ENDBRANCH   1   3
BRANCH   1   5
ATOM      5  C   UNL     1       7.882   2.383  19.025  1.00  0.00     0.134 C 
BRANCH   5   6
ATOM      6  C   UNL     1       9.191   1.937  18.396  1.00  0.00     0.071 C 
ATOM      7  C   UNL     1       9.266   0.615  17.573  1.00  0.00     0.007 C 
ATOM      8  C   UNL     1       9.760   2.942  17.416  1.00  0.00     0.136 C 
ATOM      9  C   UNL     1      10.613   0.828  16.832  1.00  0.00     0.013 C 
ATOM     10  C   UNL     1      10.667   2.292  16.411  1.00  0.00     0.076 C 
ATOM     11  O   UNL     1       9.540   4.145  17.447  1.00  0.00    -0.299 OA
BRANCH   7  12
ATOM     12  C   UNL     1       8.063   0.142  16.661  1.00  0.00    -0.025 C 
ATOM     13  C   UNL     1       8.616  -0.607  15.399  1.00  0.00     0.011 C 
ATOM     14  C   UNL     1       7.171  -0.894  17.412  1.00  0.00     0.011 C 
ATOM     15  C   UNL     1       7.155   1.288  16.147  1.00  0.00     0.011 C 
ATOM     16  C   UNL     1       7.484  -1.146  14.506  1.00  0.00    -0.010 C 
ATOM     17  C   UNL     1       6.035  -1.430  16.525  1.00  0.00    -0.010 C 
ATOM     18  C   UNL     1       6.011   0.746  15.264  1.00  0.00    -0.010 C 
ATOM     19  C   UNL     1       6.608   0.029  14.044  1.00  0.00     0.007 C 
ATOM     20  C   UNL     1       6.632  -2.136  15.305  1.00  0.00     0.007 C 
ATOM     21  C   UNL     1       5.163  -0.249  16.069  1.00  0.00     0.007 C 
ENDBRANCH   7  12
ENDBRANCH   5   6
ENDBRANCH   1   5
TORSDOF 4
ENDMDL
MODEL 8
REMARK VINA RESULT:    -6.034      1.750      3.955
REMARK INTER + INTRA:          -7.966
REMARK INTER:                  -7.449
REMARK INTRA:                  -0.517
REMARK UNBOUND:                -0.521
REMARK SMILES COC(=O)CC1C(=O)CCC1C12CC3CC(CC(C3)C1)C2
REMARK SMILES IDX 3 1 4 2 2 3 1 4 5 5 6 6 11 7 7 8 10 9 9 10 8 11 12 12 21 13
REMARK SMILES IDX 20 14 13 15 16 16 18 17 14 18 15 19 17 20 19 21
REMARK H PARENT
ROOT
ATOM      1  C   UNL     1      12.004   1.771  15.290  1.00  0.00     0.306 C 
ATOM      2  O   UNL     1      11.459   2.516  14.485  1.00  0.00    -0.252 OA
ENDROOT
BRANCH   1   3
ATOM      3  O   UNL     1      13.331   1.790  15.591  1.00  0.00    -0.469 OA
ATOM      4  C   UNL     1      13.844   0.529  16.019  1.00  0.00     0.282 C 
ENDBRANCH   1   3
BRANCH   1   5
ATOM      5  C   UNL     1      11.240   0.794  16.161  1.00  0.00     0.134 C 
BRANCH   5   6
ATOM      6  C   UNL     1      10.491   1.428  17.320  1.00  0.00     0.071 C 
ATOM      7  C   UNL     1       8.989   1.820  17.174  1.00  0.00     0.007 C 
ATOM      8  C   UNL     1      10.464   0.564  18.564  1.00  0.00     0.136 C 
ATOM      9  C   UNL     1       8.606   2.006  18.667  1.00  0.00     0.013 C 
ATOM     10  C   UNL     1       9.295   0.893  19.448  1.00  0.00     0.076 C 
ATOM     11  O   UNL     1      11.303  -0.282  18.842  1.00  0.00    -0.299 OA
BRANCH   7  12
ATOM     12  C   UNL     1       7.985   0.939  16.327  1.00  0.00    -0.025 C 
ATOM     13  C   UNL     1       6.508   1.307  16.702  1.00  0.00     0.011 C 
ATOM     14  C   UNL     1       8.125   1.248  14.804  1.00  0.00     0.011 C 
ATOM     15  C   UNL     1       8.138  -0.590  16.532  1.00  0.00     0.011 C 
ATOM     16  C   UNL     1       5.486   0.522  15.860  1.00  0.00    -0.010 C 
ATOM     17  C   UNL     1       7.110   0.460  13.958  1.00  0.00    -0.010 C 
ATOM     18  C   UNL     1       7.124  -1.377  15.676  1.00  0.00    -0.010 C 
ATOM     19  C   UNL     1       5.697  -0.983  16.089  1.00  0.00     0.007 C 
ATOM     20  C   UNL     1       5.689   0.848  14.378  1.00  0.00     0.007 C 
ATOM     21  C   UNL     1       7.330  -1.042  14.192  1.00  0.00     0.007 C 
ENDBRANCH   7  12
ENDBRANCH   5   6
ENDBRANCH   1   5
TORSDOF 4
ENDMDL
MODEL 9
REMARK VINA RESULT:    -5.992      2.191      3.859
REMARK INTER + INTRA:          -7.914
REMARK INTER:                  -7.431
REMARK INTRA:                  -0.483
REMARK UNBOUND:                -0.521
REMARK SMILES COC(=O)CC1C(=O)CCC1C12CC3CC(CC(C3)C1)C2
REMARK SMILES IDX 3 1 4 2 2 3 1 4 5 5 6 6 11 7 7 8 10 9 9 10 8 11 12 12 21 13
REMARK SMILES IDX 20 14 13 15 16 16 18 17 14 18 15 19 17 20 19 21
REMARK H PARENT
ROOT
ATOM      1  C   UNL     1      12.454  -1.715  16.364  1.00  0.00     0.306 C 
ATOM      2  O   UNL     1      12.315  -2.924  16.222  1.00  0.00    -0.252 OA
ENDROOT
BRANCH   1   3
ATOM      3  O   UNL     1      13.596  -1.027  16.090  1.00  0.00    -0.469 OA
ATOM      4  C   UNL     1      14.693  -1.369  16.936  1.00  0.00     0.282 C 
ENDBRANCH   1   3
BRANCH   1   5
ATOM      5  C   UNL     1      11.317  -0.792  16.754  1.00  0.00     0.134 C 
BRANCH   5   6
ATOM      6  C   UNL     1      11.425   0.618  16.197  1.00  0.00     0.071 C 
ATOM      7  C   UNL     1      10.631   1.028  14.919  1.00  0.00     0.007 C 
ATOM      8  C   UNL     1      10.997   1.687  17.181  1.00  0.00     0.136 C 
ATOM      9  C   UNL     1      10.731   2.573  15.017  1.00  0.00     0.013 C 
ATOM     10  C   UNL     1      10.555   2.942  16.486  1.00  0.00     0.076 C 
ATOM     11  O   UNL     1      11.033   1.567  18.398  1.00  0.00    -0.299 OA
BRANCH   7  12
ATOM     12  C   UNL     1       9.180   0.465  14.633  1.00  0.00    -0.025 C 
ATOM     13  C   UNL     1       8.437   1.402  13.619  1.00  0.00     0.011 C 
ATOM     14  C   UNL     1       9.255  -0.932  13.942  1.00  0.00     0.011 C 
ATOM     15  C   UNL     1       8.277   0.344  15.886  1.00  0.00     0.011 C 
ATOM     16  C   UNL     1       7.041   0.866  13.255  1.00  0.00    -0.010 C 
ATOM     17  C   UNL     1       7.861  -1.474  13.583  1.00  0.00    -0.010 C 
ATOM     18  C   UNL     1       6.882  -0.208  15.523  1.00  0.00    -0.010 C 
ATOM     19  C   UNL     1       6.199   0.750  14.535  1.00  0.00     0.007 C 
ATOM     20  C   UNL     1       7.178  -0.513  12.605  1.00  0.00     0.007 C 
ATOM     21  C   UNL     1       7.027  -1.589  14.868  1.00  0.00     0.007 C 
ENDBRANCH   7  12
ENDBRANCH   5   6
ENDBRANCH   1   5
TORSDOF 4
ENDMDL
