MODEL 1
REMARK VINA RESULT:    -7.160      0.000      0.000
REMARK INTER + INTRA:          -9.274
REMARK INTER:                  -8.834
REMARK INTRA:                  -0.440
REMARK UNBOUND:                -0.440
REMARK SMILES COC(=O)CC1C(=O)CCC1C12CC3CC(CC(C3)C1)C2
REMARK SMILES IDX 3 1 4 2 2 3 1 4 5 5 6 6 11 7 7 8 10 9 9 10 8 11 12 12 21 13
REMARK SMILES IDX 20 14 13 15 16 16 18 17 14 18 15 19 17 20 19 21
REMARK H PARENT
ROOT
ATOM      1  C   UNL     1       4.401  -2.780   6.258  1.00  0.00     0.306 C 
ATOM      2  O   UNL     1       3.626  -3.505   5.645  1.00  0.00    -0.252 OA
ENDROOT
BRANCH   1   3
ATOM      3  O   UNL     1       4.206  -1.454   6.491  1.00  0.00    -0.469 OA
ATOM      4  C   UNL     1       2.839  -1.100   6.704  1.00  0.00     0.282 C 
ENDBRANCH   1   3
BRANCH   1   5
ATOM      5  C   UNL     1       5.643  -3.300   6.955  1.00  0.00     0.134 C 
BRANCH   5   6
ATOM      6  C   UNL     1       6.953  -2.774   6.395  1.00  0.00     0.071 C 
ATOM      7  C   UNL     1       8.026  -2.151   7.340  1.00  0.00     0.007 C 
ATOM      8  C   UNL     1       7.760  -3.826   5.664  1.00  0.00     0.136 C 
ATOM      9  C   UNL     1       9.263  -2.172   6.403  1.00  0.00     0.013 C 
ATOM     10  C   UNL     1       9.223  -3.490   5.637  1.00  0.00     0.076 C 
ATOM     11  O   UNL     1       7.286  -4.818   5.127  1.00  0.00    -0.299 OA
BRANCH   7  12
ATOM     12  C   UNL     1       8.274  -2.721   8.795  1.00  0.00    -0.025 C 
ATOM     13  C   UNL     1       9.780  -2.535   9.188  1.00  0.00     0.011 C 
ATOM     14  C   UNL     1       7.457  -1.916   9.852  1.00  0.00     0.011 C 
ATOM     15  C   UNL     1       7.944  -4.225   8.963  1.00  0.00     0.011 C 
ATOM     16  C   UNL     1      10.066  -3.015  10.623  1.00  0.00    -0.010 C 
ATOM     17  C   UNL     1       7.734  -2.397  11.286  1.00  0.00    -0.010 C 
ATOM     18  C   UNL     1       8.215  -4.703  10.405  1.00  0.00    -0.010 C 
ATOM     19  C   UNL     1       9.702  -4.504  10.734  1.00  0.00     0.007 C 
ATOM     20  C   UNL     1       9.219  -2.207  11.609  1.00  0.00     0.007 C 
ATOM     21  C   UNL     1       7.367  -3.886  11.389  1.00  0.00     0.007 C 
ENDBRANCH   7  12
ENDBRANCH   5   6
ENDBRANCH   1   5
TORSDOF 4
ENDMDL
MODEL 2
REMARK VINA RESULT:    -6.811      3.024      5.596
REMARK INTER + INTRA:          -8.845
REMARK INTER:                  -8.511
REMARK INTRA:                  -0.333
REMARK UNBOUND:                -0.440
REMARK SMILES COC(=O)CC1C(=O)CCC1C12CC3CC(CC(C3)C1)C2
REMARK SMILES IDX 3 1 4 2 2 3 1 4 5 5 6 6 11 7 7 8 10 9 9 10 8 11 12 12 21 13
REMARK SMILES IDX 20 14 13 15 16 16 18 17 14 18 15 19 17 20 19 21
REMARK H PARENT
ROOT
ATOM      1  C   UNL     1       7.930  -0.779  11.674  1.00  0.00     0.306 C 
ATOM      2  O   UNL     1       8.798   0.076  11.808  1.00  0.00    -0.252 OA
ENDROOT
BRANCH   1   3
ATOM      3  O   UNL     1       6.990  -1.084  12.610  1.00  0.00    -0.469 OA
ATOM      4  C   UNL     1       7.533  -1.443  13.879  1.00  0.00     0.282 C 
ENDBRANCH   1   3
BRANCH   1   5
ATOM      5  C   UNL     1       7.710  -1.539  10.382  1.00  0.00     0.134 C 
BRANCH   5   6
ATOM      6  C   UNL     1       7.824  -3.049  10.506  1.00  0.00     0.071 C 
ATOM      7  C   UNL     1       7.245  -3.981   9.398  1.00  0.00     0.007 C 
ATOM      8  C   UNL     1       9.254  -3.538  10.603  1.00  0.00     0.136 C 
ATOM      9  C   UNL     1       7.958  -5.311   9.757  1.00  0.00     0.013 C 
ATOM     10  C   UNL     1       9.390  -4.962  10.146  1.00  0.00     0.076 C 
ATOM     11  O   UNL     1      10.188  -2.874  11.030  1.00  0.00    -0.299 OA
BRANCH   7  12
ATOM     12  C   UNL     1       7.302  -3.580   7.869  1.00  0.00    -0.025 C 
ATOM     13  C   UNL     1       7.364  -4.871   6.981  1.00  0.00     0.011 C 
ATOM     14  C   UNL     1       5.999  -2.834   7.442  1.00  0.00     0.011 C 
ATOM     15  C   UNL     1       8.518  -2.702   7.478  1.00  0.00     0.011 C 
ATOM     16  C   UNL     1       7.357  -4.539   5.478  1.00  0.00    -0.010 C 
ATOM     17  C   UNL     1       5.991  -2.495   5.942  1.00  0.00    -0.010 C 
ATOM     18  C   UNL     1       8.502  -2.357   5.974  1.00  0.00    -0.010 C 
ATOM     19  C   UNL     1       8.570  -3.654   5.155  1.00  0.00     0.007 C 
ATOM     20  C   UNL     1       6.069  -3.790   5.128  1.00  0.00     0.007 C 
ATOM     21  C   UNL     1       7.207  -1.609   5.627  1.00  0.00     0.007 C 
ENDBRANCH   7  12
ENDBRANCH   5   6
ENDBRANCH   1   5
TORSDOF 4
ENDMDL
MODEL 3
REMARK VINA RESULT:    -6.796      6.394      9.148
REMARK INTER + INTRA:          -8.825
REMARK INTER:                  -8.297
REMARK INTRA:                  -0.528
REMARK UNBOUND:                -0.440
REMARK SMILES COC(=O)CC1C(=O)CCC1C12CC3CC(CC(C3)C1)C2
REMARK SMILES IDX 3 1 4 2 2 3 1 4 5 5 6 6 11 7 7 8 10 9 9 10 8 11 12 12 21 13
REMARK SMILES IDX 20 14 13 15 16 16 18 17 14 18 15 19 17 20 19 21
REMARK H PARENT
ROOT
ATOM      1  C   UNL     1      11.225   1.862  15.715  1.00  0.00     0.306 C 
ATOM      2  O   UNL     1      11.110   1.720  16.926  1.00  0.00    -0.252 OA
ENDROOT
BRANCH   1   3
ATOM      3  O   UNL     1      12.402   1.808  15.034  1.00  0.00    -0.469 OA
ATOM      4  C   UNL     1      13.507   1.369  15.825  1.00  0.00     0.282 C 
ENDBRANCH   1   3
BRANCH   1   5
ATOM      5  C   UNL     1      10.038   1.999  14.782  1.00  0.00     0.134 C 
BRANCH   5   6
ATOM      6  C   UNL     1       9.878   0.863  13.787  1.00  0.00     0.071 C 
ATOM      7  C   UNL     1       9.249  -0.494  14.227  1.00  0.00     0.007 C 
ATOM      8  C   UNL     1       9.021   1.226  12.592  1.00  0.00     0.136 C 
ATOM      9  C   UNL     1       8.930  -1.113  12.841  1.00  0.00     0.013 C 
ATOM     10  C   UNL     1       8.404   0.013  11.958  1.00  0.00     0.076 C 
ATOM     11  O   UNL     1       8.867   2.362  12.166  1.00  0.00    -0.299 OA
BRANCH   7  12
ATOM     12  C   UNL     1       8.068  -0.553  15.278  1.00  0.00    -0.025 C 
ATOM     13  C   UNL     1       7.097  -1.732  14.922  1.00  0.00     0.011 C 
ATOM     14  C   UNL     1       8.611  -0.869  16.706  1.00  0.00     0.011 C 
ATOM     15  C   UNL     1       7.209   0.734  15.355  1.00  0.00     0.011 C 
ATOM     16  C   UNL     1       5.961  -1.876  15.950  1.00  0.00    -0.010 C 
ATOM     17  C   UNL     1       7.479  -1.006  17.738  1.00  0.00    -0.010 C 
ATOM     18  C   UNL     1       6.080   0.596  16.397  1.00  0.00    -0.010 C 
ATOM     19  C   UNL     1       5.158  -0.567  15.996  1.00  0.00     0.007 C 
ATOM     20  C   UNL     1       6.557  -2.160  17.331  1.00  0.00     0.007 C 
ATOM     21  C   UNL     1       6.683   0.307  17.779  1.00  0.00     0.007 C 
ENDBRANCH   7  12
ENDBRANCH   5   6
ENDBRANCH   1   5
TORSDOF 4
ENDMDL
MODEL 4
REMARK VINA RESULT:    -6.632      2.173      3.843
REMARK INTER + INTRA:          -8.623
REMARK INTER:                  -8.603
REMARK INTRA:                  -0.020
REMARK UNBOUND:                -0.440
REMARK SMILES COC(=O)CC1C(=O)CCC1C12CC3CC(CC(C3)C1)C2
REMARK SMILES IDX 3 1 4 2 2 3 1 4 5 5 6 6 11 7 7 8 10 9 9 10 8 11 12 12 21 13
REMARK SMILES IDX 20 14 13 15 16 16 18 17 14 18 15 19 17 20 19 21
REMARK H PARENT
ROOT
ATOM      1  C   UNL     1       6.679  -6.963   8.936  1.00  0.00     0.306 C 
ATOM      2  O   UNL     1       6.302  -8.004   8.410  1.00  0.00    -0.252 OA
ENDROOT
BRANCH   1   3
ATOM      3  O   UNL     1       6.613  -6.699  10.269  1.00  0.00    -0.469 OA
ATOM      4  C   UNL     1       6.605  -7.866  11.090  1.00  0.00     0.282 C 
ENDBRANCH   1   3
BRANCH   1   5
ATOM      5  C   UNL     1       7.391  -5.863   8.175  1.00  0.00     0.134 C 
BRANCH   5   6
ATOM      6  C   UNL     1       6.491  -4.737   7.695  1.00  0.00     0.071 C 
ATOM      7  C   UNL     1       6.347  -3.427   8.529  1.00  0.00     0.007 C 
ATOM      8  C   UNL     1       6.879  -4.196   6.336  1.00  0.00     0.136 C 
ATOM      9  C   UNL     1       5.711  -2.493   7.466  1.00  0.00     0.013 C 
ATOM     10  C   UNL     1       6.405  -2.784   6.140  1.00  0.00     0.076 C 
ATOM     11  O   UNL     1       7.477  -4.831   5.478  1.00  0.00    -0.299 OA
BRANCH   7  12
ATOM     12  C   UNL     1       7.573  -2.812   9.318  1.00  0.00    -0.025 C 
ATOM     13  C   UNL     1       7.089  -1.607  10.196  1.00  0.00     0.011 C 
ATOM     14  C   UNL     1       8.168  -3.853  10.316  1.00  0.00     0.011 C 
ATOM     15  C   UNL     1       8.720  -2.287   8.418  1.00  0.00     0.011 C 
ATOM     16  C   UNL     1       8.232  -1.010  11.036  1.00  0.00    -0.010 C 
ATOM     17  C   UNL     1       9.315  -3.262  11.152  1.00  0.00    -0.010 C 
ATOM     18  C   UNL     1       9.872  -1.702   9.260  1.00  0.00    -0.010 C 
ATOM     19  C   UNL     1       9.345  -0.524  10.094  1.00  0.00     0.007 C 
ATOM     20  C   UNL     1       8.789  -2.082  11.976  1.00  0.00     0.007 C 
ATOM     21  C   UNL     1      10.423  -2.780  10.204  1.00  0.00     0.007 C 
ENDBRANCH   7  12
ENDBRANCH   5   6
ENDBRANCH   1   5
TORSDOF 4
ENDMDL
MODEL 5
REMARK VINA RESULT:    -6.532      6.416      8.936
REMARK INTER + INTRA:          -8.499
REMARK INTER:                  -8.120
REMARK INTRA:                  -0.380
REMARK UNBOUND:                -0.440
REMARK SMILES COC(=O)CC1C(=O)CCC1C12CC3CC(CC(C3)C1)C2
REMARK SMILES IDX 3 1 4 2 2 3 1 4 5 5 6 6 11 7 7 8 10 9 9 10 8 11 12 12 21 13
REMARK SMILES IDX 20 14 13 15 16 16 18 17 14 18 15 19 17 20 19 21
REMARK H PARENT
ROOT
ATOM      1  C   UNL     1      11.327   2.035  15.565  1.00  0.00     0.306 C 
ATOM      2  O   UNL     1      12.399   1.798  15.021  1.00  0.00    -0.252 OA
ENDROOT
BRANCH   1   3
ATOM      3  O   UNL     1      11.187   2.491  16.840  1.00  0.00    -0.469 OA
ATOM      4  C   UNL     1       9.830   2.637  17.255  1.00  0.00     0.282 C 
ENDBRANCH   1   3
BRANCH   1   5
ATOM      5  C   UNL     1       9.998   1.966  14.840  1.00  0.00     0.134 C 
BRANCH   5   6
ATOM      6  C   UNL     1       9.896   0.858  13.806  1.00  0.00     0.071 C 
ATOM      7  C   UNL     1       9.294  -0.529  14.187  1.00  0.00     0.007 C 
ATOM      8  C   UNL     1       9.060   1.235  12.601  1.00  0.00     0.136 C 
ATOM      9  C   UNL     1       9.029  -1.112  12.774  1.00  0.00     0.013 C 
ATOM     10  C   UNL     1       8.493   0.026  11.913  1.00  0.00     0.076 C 
ATOM     11  O   UNL     1       8.884   2.380  12.206  1.00  0.00    -0.299 OA
BRANCH   7  12
ATOM     12  C   UNL     1       8.089  -0.654  15.204  1.00  0.00    -0.025 C 
ATOM     13  C   UNL     1       8.636  -0.937  16.645  1.00  0.00     0.011 C 
ATOM     14  C   UNL     1       7.306   0.692  15.304  1.00  0.00     0.011 C 
ATOM     15  C   UNL     1       7.080  -1.783  14.872  1.00  0.00     0.011 C 
ATOM     16  C   UNL     1       7.507  -1.005  17.689  1.00  0.00    -0.010 C 
ATOM     17  C   UNL     1       6.172   0.626  16.341  1.00  0.00    -0.010 C 
ATOM     18  C   UNL     1       5.939  -1.841  15.909  1.00  0.00    -0.010 C 
ATOM     19  C   UNL     1       6.531  -2.126  17.298  1.00  0.00     0.007 C 
ATOM     20  C   UNL     1       6.763   0.333  17.723  1.00  0.00     0.007 C 
ATOM     21  C   UNL     1       5.200  -0.496  15.943  1.00  0.00     0.007 C 
ENDBRANCH   7  12
ENDBRANCH   5   6
ENDBRANCH   1   5
TORSDOF 4
ENDMDL
MODEL 6
REMARK VINA RESULT:    -6.273      8.007     10.534
REMARK INTER + INTRA:          -8.181
REMARK INTER:                  -7.570
REMARK INTRA:                  -0.610
REMARK UNBOUND:                -0.440
REMARK SMILES COC(=O)CC1C(=O)CCC1C12CC3CC(CC(C3)C1)C2
REMARK SMILES IDX 3 1 4 2 2 3 1 4 5 5 6 6 11 7 7 8 10 9 9 10 8 11 12 12 21 13
REMARK SMILES IDX 20 14 13 15 16 16 18 17 14 18 15 19 17 20 19 21
REMARK H PARENT
ROOT
ATOM      1  C   UNL     1       7.398   2.533  19.333  1.00  0.00     0.306 C 
ATOM      2  O   UNL     1       7.898   2.044  20.339  1.00  0.00    -0.252 OA
ENDROOT
BRANCH   1   3
ATOM      3  O   UNL     1       6.095   2.910  19.218  1.00  0.00    -0.469 OA
ATOM      4  C   UNL     1       5.712   3.264  17.890  1.00  0.00     0.282 C 
ENDBRANCH   1   3
BRANCH   1   5
ATOM      5  C   UNL     1       8.204   2.900  18.103  1.00  0.00     0.134 C 
BRANCH   5   6
ATOM      6  C   UNL     1       9.420   2.023  17.857  1.00  0.00     0.071 C 
ATOM      7  C   UNL     1       9.251   0.535  17.425  1.00  0.00     0.007 C 
ATOM      8  C   UNL     1      10.335   2.556  16.773  1.00  0.00     0.136 C 
ATOM      9  C   UNL     1      10.683   0.232  16.912  1.00  0.00     0.013 C 
ATOM     10  C   UNL     1      11.156   1.464  16.149  1.00  0.00     0.076 C 
ATOM     11  O   UNL     1      10.427   3.734  16.457  1.00  0.00    -0.299 OA
BRANCH   7  12
ATOM     12  C   UNL     1       8.081   0.084  16.460  1.00  0.00    -0.025 C 
ATOM     13  C   UNL     1       8.581  -1.067  15.520  1.00  0.00     0.011 C 
ATOM     14  C   UNL     1       6.892  -0.518  17.272  1.00  0.00     0.011 C 
ATOM     15  C   UNL     1       7.529   1.208  15.547  1.00  0.00     0.011 C 
ATOM     16  C   UNL     1       7.462  -1.589  14.601  1.00  0.00    -0.010 C 
ATOM     17  C   UNL     1       5.769  -1.034  16.358  1.00  0.00    -0.010 C 
ATOM     18  C   UNL     1       6.397   0.689  14.636  1.00  0.00    -0.010 C 
ATOM     19  C   UNL     1       6.943  -0.430  13.736  1.00  0.00     0.007 C 
ATOM     20  C   UNL     1       6.318  -2.143  15.454  1.00  0.00     0.007 C 
ATOM     21  C   UNL     1       5.255   0.130  15.497  1.00  0.00     0.007 C 
ENDBRANCH   7  12
ENDBRANCH   5   6
ENDBRANCH   1   5
TORSDOF 4
ENDMDL
MODEL 7
REMARK VINA RESULT:    -6.191      2.316      4.143
REMARK INTER + INTRA:          -8.079
REMARK INTER:                  -7.674
REMARK INTRA:                  -0.405
REMARK UNBOUND:                -0.440
REMARK SMILES COC(=O)CC1C(=O)CCC1C12CC3CC(CC(C3)C1)C2
REMARK SMILES IDX 3 1 4 2 2 3 1 4 5 5 6 6 11 7 7 8 10 9 9 10 8 11 12 12 21 13
REMARK SMILES IDX 20 14 13 15 16 16 18 17 14 18 15 19 17 20 19 21
REMARK H PARENT
ROOT
ATOM      1  C   UNL     1       6.624  -2.728   7.772  1.00  0.00     0.306 C 
ATOM      2  O   UNL     1       5.522  -2.401   7.346  1.00  0.00    -0.252 OA
ENDROOT
BRANCH   1   3
ATOM      3  O   UNL     1       7.645  -3.198   7.005  1.00  0.00    -0.469 OA
ATOM      4  C   UNL     1       7.366  -4.448   6.375  1.00  0.00     0.282 C 
ENDBRANCH   1   3
BRANCH   1   5
ATOM      5  C   UNL     1       7.042  -2.536   9.216  1.00  0.00     0.134 C 
BRANCH   5   6
ATOM      6  C   UNL     1       8.415  -3.090   9.558  1.00  0.00     0.071 C 
ATOM      7  C   UNL     1       9.364  -2.317  10.524  1.00  0.00     0.007 C 
ATOM      8  C   UNL     1       8.367  -4.458  10.205  1.00  0.00     0.136 C 
ATOM      9  C   UNL     1      10.382  -3.437  10.865  1.00  0.00     0.013 C 
ATOM     10  C   UNL     1       9.588  -4.727  11.037  1.00  0.00     0.076 C 
ATOM     11  O   UNL     1       7.465  -5.270  10.051  1.00  0.00    -0.299 OA
BRANCH   7  12
ATOM     12  C   UNL     1       8.802  -1.516  11.767  1.00  0.00    -0.025 C 
ATOM     13  C   UNL     1       9.741  -1.728  13.005  1.00  0.00     0.011 C 
ATOM     14  C   UNL     1       8.808   0.019  11.488  1.00  0.00     0.011 C 
ATOM     15  C   UNL     1       7.374  -1.927  12.206  1.00  0.00     0.011 C 
ATOM     16  C   UNL     1       9.275  -0.919  14.228  1.00  0.00    -0.010 C 
ATOM     17  C   UNL     1       8.336   0.830  12.706  1.00  0.00    -0.010 C 
ATOM     18  C   UNL     1       6.900  -1.106  13.423  1.00  0.00    -0.010 C 
ATOM     19  C   UNL     1       7.851  -1.355  14.605  1.00  0.00     0.007 C 
ATOM     20  C   UNL     1       9.280   0.573  13.885  1.00  0.00     0.007 C 
ATOM     21  C   UNL     1       6.911   0.389  13.074  1.00  0.00     0.007 C 
ENDBRANCH   7  12
ENDBRANCH   5   6
ENDBRANCH   1   5
TORSDOF 4
ENDMDL
MODEL 8
REMARK VINA RESULT:    -6.159      8.374     11.305
REMARK INTER + INTRA:          -8.039
REMARK INTER:                  -7.577
REMARK INTRA:                  -0.463
REMARK UNBOUND:                -0.440
REMARK SMILES COC(=O)CC1C(=O)CCC1C12CC3CC(CC(C3)C1)C2
REMARK SMILES IDX 3 1 4 2 2 3 1 4 5 5 6 6 11 7 7 8 10 9 9 10 8 11 12 12 21 13
REMARK SMILES IDX 20 14 13 15 16 16 18 17 14 18 15 19 17 20 19 21
REMARK H PARENT
ROOT
ATOM      1  C   UNL     1       7.695   2.113  20.529  1.00  0.00     0.306 C 
ATOM      2  O   UNL     1       6.989   2.848  21.209  1.00  0.00    -0.252 OA
ENDROOT
BRANCH   1   3
ATOM      3  O   UNL     1       8.310   0.988  20.983  1.00  0.00    -0.469 OA
ATOM      4  C   UNL     1       8.861   1.119  22.293  1.00  0.00     0.282 C 
ENDBRANCH   1   3
BRANCH   1   5
ATOM      5  C   UNL     1       7.882   2.297  19.036  1.00  0.00     0.134 C 
BRANCH   5   6
ATOM      6  C   UNL     1       9.188   1.748  18.487  1.00  0.00     0.071 C 
ATOM      7  C   UNL     1       9.212   0.408  17.690  1.00  0.00     0.007 C 
ATOM      8  C   UNL     1       9.878   2.691  17.524  1.00  0.00     0.136 C 
ATOM      9  C   UNL     1      10.608   0.511  17.022  1.00  0.00     0.013 C 
ATOM     10  C   UNL     1      10.790   1.958  16.581  1.00  0.00     0.076 C 
ATOM     11  O   UNL     1       9.744   3.907  17.524  1.00  0.00    -0.299 OA
BRANCH   7  12
ATOM     12  C   UNL     1       8.030   0.003  16.720  1.00  0.00    -0.025 C 
ATOM     13  C   UNL     1       8.587  -0.852  15.530  1.00  0.00     0.011 C 
ATOM     14  C   UNL     1       6.999  -0.912  17.453  1.00  0.00     0.011 C 
ATOM     15  C   UNL     1       7.266   1.200  16.100  1.00  0.00     0.011 C 
ATOM     16  C   UNL     1       7.468  -1.328  14.587  1.00  0.00    -0.010 C 
ATOM     17  C   UNL     1       5.875  -1.383  16.516  1.00  0.00    -0.010 C 
ATOM     18  C   UNL     1       6.134   0.723  15.167  1.00  0.00    -0.010 C 
ATOM     19  C   UNL     1       6.736  -0.102  14.019  1.00  0.00     0.007 C 
ATOM     20  C   UNL     1       6.479  -2.198  15.368  1.00  0.00     0.007 C 
ATOM     21  C   UNL     1       5.148  -0.152  15.954  1.00  0.00     0.007 C 
ENDBRANCH   7  12
ENDBRANCH   5   6
ENDBRANCH   1   5
TORSDOF 4
ENDMDL
MODEL 9
REMARK VINA RESULT:    -6.070      7.126     10.217
REMARK INTER + INTRA:          -7.930
REMARK INTER:                  -7.397
REMARK INTRA:                  -0.532
REMARK UNBOUND:                -0.440
REMARK SMILES COC(=O)CC1C(=O)CCC1C12CC3CC(CC(C3)C1)C2
REMARK SMILES IDX 3 1 4 2 2 3 1 4 5 5 6 6 11 7 7 8 10 9 9 10 8 11 12 12 21 13
REMARK SMILES IDX 20 14 13 15 16 16 18 17 14 18 15 19 17 20 19 21
REMARK H PARENT
ROOT
ATOM      1  C   UNL     1      12.111  -1.526  17.038  1.00  0.00     0.306 C 
ATOM      2  O   UNL     1      12.204  -2.308  16.099  1.00  0.00    -0.252 OA
ENDROOT
BRANCH   1   3
ATOM      3  O   UNL     1      13.049  -1.365  18.011  1.00  0.00    -0.469 OA
ATOM      4  C   UNL     1      12.504  -1.246  19.325  1.00  0.00     0.282 C 
ENDBRANCH   1   3
BRANCH   1   5
ATOM      5  C   UNL     1      10.975  -0.531  17.176  1.00  0.00     0.134 C 
BRANCH   5   6
ATOM      6  C   UNL     1      11.206   0.796  16.475  1.00  0.00     0.071 C 
ATOM      7  C   UNL     1      10.567   1.077  15.080  1.00  0.00     0.007 C 
ATOM      8  C   UNL     1      10.731   1.990  17.276  1.00  0.00     0.136 C 
ATOM      9  C   UNL     1      10.730   2.619  15.008  1.00  0.00     0.013 C 
ATOM     10  C   UNL     1      10.422   3.168  16.397  1.00  0.00     0.076 C 
ATOM     11  O   UNL     1      10.636   2.016  18.496  1.00  0.00    -0.299 OA
BRANCH   7  12
ATOM     12  C   UNL     1       9.129   0.535  14.707  1.00  0.00    -0.025 C 
ATOM     13  C   UNL     1       8.540   1.365  13.514  1.00  0.00     0.011 C 
ATOM     14  C   UNL     1       9.206  -0.939  14.201  1.00  0.00     0.011 C 
ATOM     15  C   UNL     1       8.095   0.602  15.860  1.00  0.00     0.011 C 
ATOM     16  C   UNL     1       7.165   0.837  13.067  1.00  0.00    -0.010 C 
ATOM     17  C   UNL     1       7.832  -1.472  13.760  1.00  0.00    -0.010 C 
ATOM     18  C   UNL     1       6.721   0.060  15.416  1.00  0.00    -0.010 C 
ATOM     19  C   UNL     1       6.190   0.911  14.253  1.00  0.00     0.007 C 
ATOM     20  C   UNL     1       7.301  -0.616  12.606  1.00  0.00     0.007 C 
ATOM     21  C   UNL     1       6.865  -1.396  14.951  1.00  0.00     0.007 C 
ENDBRANCH   7  12
ENDBRANCH   5   6
ENDBRANCH   1   5
TORSDOF 4
ENDMDL
