MODEL 1
REMARK VINA RESULT:    -7.117      0.000      0.000
REMARK INTER + INTRA:          -9.264
REMARK INTER:                  -8.782
REMARK INTRA:                  -0.483
REMARK UNBOUND:                -0.483
REMARK SMILES COC(=O)CC1C(=O)CCC1C12CC3CC(CC(C3)C1)C2
REMARK SMILES IDX 3 1 4 2 2 3 1 4 5 5 6 6 11 7 7 8 10 9 9 10 8 11 12 12 21 13
REMARK SMILES IDX 20 14 13 15 16 16 18 17 14 18 15 19 17 20 19 21
REMARK H PARENT
ROOT
ATOM      1  C   UNL     1       4.450  -3.101   6.044  1.00  0.00     0.306 C 
ATOM      2  O   UNL     1       3.450  -3.810   6.067  1.00  0.00    -0.252 OA
ENDROOT
BRANCH   1   3
ATOM      3  O   UNL     1       4.568  -1.949   5.329  1.00  0.00    -0.469 OA
ATOM      4  C   UNL     1       3.706  -0.903   5.773  1.00  0.00     0.282 C 
ENDBRANCH   1   3
BRANCH   1   5
ATOM      5  C   UNL     1       5.662  -3.353   6.917  1.00  0.00     0.134 C 
BRANCH   5   6
ATOM      6  C   UNL     1       6.969  -2.818   6.358  1.00  0.00     0.071 C 
ATOM      7  C   UNL     1       8.027  -2.166   7.301  1.00  0.00     0.007 C 
ATOM      8  C   UNL     1       7.796  -3.872   5.651  1.00  0.00     0.136 C 
ATOM      9  C   UNL     1       9.271  -2.186   6.374  1.00  0.00     0.013 C 
ATOM     10  C   UNL     1       9.255  -3.516   5.630  1.00  0.00     0.076 C 
ATOM     11  O   UNL     1       7.340  -4.879   5.128  1.00  0.00    -0.299 OA
BRANCH   7  12
ATOM     12  C   UNL     1       8.272  -2.708   8.767  1.00  0.00    -0.025 C 
ATOM     13  C   UNL     1       9.757  -2.441   9.191  1.00  0.00     0.011 C 
ATOM     14  C   UNL     1       7.390  -1.936   9.797  1.00  0.00     0.011 C 
ATOM     15  C   UNL     1       8.015  -4.226   8.944  1.00  0.00     0.011 C 
ATOM     16  C   UNL     1      10.034  -2.892  10.637  1.00  0.00    -0.010 C 
ATOM     17  C   UNL     1       7.659  -2.389  11.242  1.00  0.00    -0.010 C 
ATOM     18  C   UNL     1       8.278  -4.676  10.396  1.00  0.00    -0.010 C 
ATOM     19  C   UNL     1       9.745  -4.397  10.756  1.00  0.00     0.007 C 
ATOM     20  C   UNL     1       9.125  -2.119  11.595  1.00  0.00     0.007 C 
ATOM     21  C   UNL     1       7.367  -3.893  11.353  1.00  0.00     0.007 C 
ENDBRANCH   7  12
ENDBRANCH   5   6
ENDBRANCH   1   5
TORSDOF 4
ENDMDL
MODEL 2
REMARK VINA RESULT:    -6.672      6.700      9.269
REMARK INTER + INTRA:          -8.715
REMARK INTER:                  -8.086
REMARK INTRA:                  -0.629
REMARK UNBOUND:                -0.483
REMARK SMILES COC(=O)CC1C(=O)CCC1C12CC3CC(CC(C3)C1)C2
REMARK SMILES IDX 3 1 4 2 2 3 1 4 5 5 6 6 11 7 7 8 10 9 9 10 8 11 12 12 21 13
REMARK SMILES IDX 20 14 13 15 16 16 18 17 14 18 15 19 17 20 19 21
REMARK H PARENT
ROOT
ATOM      1  C   UNL     1      11.414   1.969  15.686  1.00  0.00     0.306 C 
ATOM      2  O   UNL     1      12.521   1.779  15.196  1.00  0.00    -0.252 OA
ENDROOT
BRANCH   1   3
ATOM      3  O   UNL     1      11.181   2.226  17.002  1.00  0.00    -0.469 OA
ATOM      4  C   UNL     1       9.884   2.760  17.266  1.00  0.00     0.282 C 
ENDBRANCH   1   3
BRANCH   1   5
ATOM      5  C   UNL     1      10.148   2.064  14.858  1.00  0.00     0.134 C 
BRANCH   5   6
ATOM      6  C   UNL     1       9.969   0.949  13.842  1.00  0.00     0.071 C 
ATOM      7  C   UNL     1       9.304  -0.400  14.253  1.00  0.00     0.007 C 
ATOM      8  C   UNL     1       9.130   1.354  12.648  1.00  0.00     0.136 C 
ATOM      9  C   UNL     1       8.982  -0.986  12.853  1.00  0.00     0.013 C 
ATOM     10  C   UNL     1       8.489   0.167  11.987  1.00  0.00     0.076 C 
ATOM     11  O   UNL     1       9.006   2.501  12.241  1.00  0.00    -0.299 OA
BRANCH   7  12
ATOM     12  C   UNL     1       8.113  -0.450  15.294  1.00  0.00    -0.025 C 
ATOM     13  C   UNL     1       7.136  -1.620  14.929  1.00  0.00     0.011 C 
ATOM     14  C   UNL     1       8.642  -0.770  16.727  1.00  0.00     0.011 C 
ATOM     15  C   UNL     1       7.265   0.845  15.364  1.00  0.00     0.011 C 
ATOM     16  C   UNL     1       5.991  -1.755  15.947  1.00  0.00    -0.010 C 
ATOM     17  C   UNL     1       7.501  -0.899  17.749  1.00  0.00    -0.010 C 
ATOM     18  C   UNL     1       6.125   0.715  16.396  1.00  0.00    -0.010 C 
ATOM     19  C   UNL     1       5.198  -0.439  15.987  1.00  0.00     0.007 C 
ATOM     20  C   UNL     1       6.572  -2.044  17.334  1.00  0.00     0.007 C 
ATOM     21  C   UNL     1       6.714   0.421  17.783  1.00  0.00     0.007 C 
ENDBRANCH   7  12
ENDBRANCH   5   6
ENDBRANCH   1   5
TORSDOF 4
ENDMDL
MODEL 3
REMARK VINA RESULT:    -6.595      6.589      9.083
REMARK INTER + INTRA:          -8.619
REMARK INTER:                  -8.320
REMARK INTRA:                  -0.299
REMARK UNBOUND:                -0.483
REMARK SMILES COC(=O)CC1C(=O)CCC1C12CC3CC(CC(C3)C1)C2
REMARK SMILES IDX 3 1 4 2 2 3 1 4 5 5 6 6 11 7 7 8 10 9 9 10 8 11 12 12 21 13
REMARK SMILES IDX 20 14 13 15 16 16 18 17 14 18 15 19 17 20 19 21
REMARK H PARENT
ROOT
ATOM      1  C   UNL     1      11.135   1.877  15.829  1.00  0.00     0.306 C 
ATOM      2  O   UNL     1      11.062   1.590  17.019  1.00  0.00    -0.252 OA
ENDROOT
BRANCH   1   3
ATOM      3  O   UNL     1      12.296   2.076  15.148  1.00  0.00    -0.469 OA
ATOM      4  C   UNL     1      13.420   1.404  15.715  1.00  0.00     0.282 C 
ENDBRANCH   1   3
BRANCH   1   5
ATOM      5  C   UNL     1       9.926   1.930  14.916  1.00  0.00     0.134 C 
BRANCH   5   6
ATOM      6  C   UNL     1       9.861   0.816  13.885  1.00  0.00     0.071 C 
ATOM      7  C   UNL     1       9.271  -0.578  14.259  1.00  0.00     0.007 C 
ATOM      8  C   UNL     1       9.045   1.177  12.661  1.00  0.00     0.136 C 
ATOM      9  C   UNL     1       9.043  -1.169  12.843  1.00  0.00     0.013 C 
ATOM     10  C   UNL     1       8.510  -0.042  11.966  1.00  0.00     0.076 C 
ATOM     11  O   UNL     1       8.862   2.318  12.259  1.00  0.00    -0.299 OA
BRANCH   7  12
ATOM     12  C   UNL     1       8.046  -0.716  15.251  1.00  0.00    -0.025 C 
ATOM     13  C   UNL     1       8.565  -1.048  16.693  1.00  0.00     0.011 C 
ATOM     14  C   UNL     1       7.280   0.638  15.378  1.00  0.00     0.011 C 
ATOM     15  C   UNL     1       7.029  -1.820  14.869  1.00  0.00     0.011 C 
ATOM     16  C   UNL     1       7.417  -1.131  17.714  1.00  0.00    -0.010 C 
ATOM     17  C   UNL     1       6.127   0.557  16.393  1.00  0.00    -0.010 C 
ATOM     18  C   UNL     1       5.870  -1.893  15.885  1.00  0.00    -0.010 C 
ATOM     19  C   UNL     1       6.433  -2.226  17.275  1.00  0.00     0.007 C 
ATOM     20  C   UNL     1       6.691   0.215  17.775  1.00  0.00     0.007 C 
ATOM     21  C   UNL     1       5.148  -0.539  15.945  1.00  0.00     0.007 C 
ENDBRANCH   7  12
ENDBRANCH   5   6
ENDBRANCH   1   5
TORSDOF 4
ENDMDL
MODEL 4
REMARK VINA RESULT:    -6.559      6.566      9.158
REMARK INTER + INTRA:          -8.575
REMARK INTER:                  -8.281
REMARK INTRA:                  -0.294
REMARK UNBOUND:                -0.483
REMARK SMILES COC(=O)CC1C(=O)CCC1C12CC3CC(CC(C3)C1)C2
REMARK SMILES IDX 3 1 4 2 2 3 1 4 5 5 6 6 11 7 7 8 10 9 9 10 8 11 12 12 21 13
REMARK SMILES IDX 20 14 13 15 16 16 18 17 14 18 15 19 17 20 19 21
REMARK H PARENT
ROOT
ATOM      1  C   UNL     1      11.213   1.808  15.721  1.00  0.00     0.306 C 
ATOM      2  O   UNL     1      11.127   1.575  16.921  1.00  0.00    -0.252 OA
ENDROOT
BRANCH   1   3
ATOM      3  O   UNL     1      12.381   1.889  15.027  1.00  0.00    -0.469 OA
ATOM      4  C   UNL     1      13.490   1.284  15.691  1.00  0.00     0.282 C 
ENDBRANCH   1   3
BRANCH   1   5
ATOM      5  C   UNL     1      10.005   1.916  14.812  1.00  0.00     0.134 C 
BRANCH   5   6
ATOM      6  C   UNL     1       9.859   0.782  13.813  1.00  0.00     0.071 C 
ATOM      7  C   UNL     1       9.288  -0.599  14.258  1.00  0.00     0.007 C 
ATOM      8  C   UNL     1       8.959   1.123  12.643  1.00  0.00     0.136 C 
ATOM      9  C   UNL     1       8.955  -1.219  12.876  1.00  0.00     0.013 C 
ATOM     10  C   UNL     1       8.368  -0.106  12.015  1.00  0.00     0.076 C 
ATOM     11  O   UNL     1       8.755   2.256  12.230  1.00  0.00    -0.299 OA
BRANCH   7  12
ATOM     12  C   UNL     1       8.137  -0.706  15.339  1.00  0.00    -0.025 C 
ATOM     13  C   UNL     1       7.323   0.633  15.383  1.00  0.00     0.011 C 
ATOM     14  C   UNL     1       7.111  -1.814  14.947  1.00  0.00     0.011 C 
ATOM     15  C   UNL     1       8.631  -0.985  16.781  1.00  0.00     0.011 C 
ATOM     16  C   UNL     1       6.148   0.561  16.375  1.00  0.00    -0.010 C 
ATOM     17  C   UNL     1       5.939  -1.893  15.940  1.00  0.00    -0.010 C 
ATOM     18  C   UNL     1       7.452  -1.072  17.772  1.00  0.00    -0.010 C 
ATOM     19  C   UNL     1       6.695   0.265  17.779  1.00  0.00     0.007 C 
ATOM     20  C   UNL     1       5.191  -0.556  15.952  1.00  0.00     0.007 C 
ATOM     21  C   UNL     1       6.494  -2.191  17.341  1.00  0.00     0.007 C 
ENDBRANCH   7  12
ENDBRANCH   5   6
ENDBRANCH   1   5
TORSDOF 4
ENDMDL
MODEL 5
REMARK VINA RESULT:    -6.298      4.840      7.187
REMARK INTER + INTRA:          -8.253
REMARK INTER:                  -8.044
REMARK INTRA:                  -0.209
REMARK UNBOUND:                -0.483
REMARK SMILES COC(=O)CC1C(=O)CCC1C12CC3CC(CC(C3)C1)C2
REMARK SMILES IDX 3 1 4 2 2 3 1 4 5 5 6 6 11 7 7 8 10 9 9 10 8 11 12 12 21 13
REMARK SMILES IDX 20 14 13 15 16 16 18 17 14 18 15 19 17 20 19 21
REMARK H PARENT
ROOT
ATOM      1  C   UNL     1       6.673  -1.852  16.094  1.00  0.00     0.306 C 
ATOM      2  O   UNL     1       6.037  -2.784  16.572  1.00  0.00    -0.252 OA
ENDROOT
BRANCH   1   3
ATOM      3  O   UNL     1       7.271  -0.867  16.819  1.00  0.00    -0.469 OA
ATOM      4  C   UNL     1       6.357  -0.061  17.562  1.00  0.00     0.282 C 
ENDBRANCH   1   3
BRANCH   1   5
ATOM      5  C   UNL     1       6.986  -1.736  14.616  1.00  0.00     0.134 C 
BRANCH   5   6
ATOM      6  C   UNL     1       7.848  -0.542  14.241  1.00  0.00     0.071 C 
ATOM      7  C   UNL     1       8.966  -0.679  13.162  1.00  0.00     0.007 C 
ATOM      8  C   UNL     1       7.052   0.632  13.712  1.00  0.00     0.136 C 
ATOM      9  C   UNL     1       9.236   0.818  12.855  1.00  0.00     0.013 C 
ATOM     10  C   UNL     1       7.885   1.522  12.835  1.00  0.00     0.076 C 
ATOM     11  O   UNL     1       5.880   0.857  13.983  1.00  0.00    -0.299 OA
BRANCH   7  12
ATOM     12  C   UNL     1       8.778  -1.604  11.893  1.00  0.00    -0.025 C 
ATOM     13  C   UNL     1       9.055  -0.779  10.589  1.00  0.00     0.011 C 
ATOM     14  C   UNL     1       9.824  -2.762  11.891  1.00  0.00     0.011 C 
ATOM     15  C   UNL     1       7.364  -2.221  11.748  1.00  0.00     0.011 C 
ATOM     16  C   UNL     1       8.949  -1.648   9.323  1.00  0.00    -0.010 C 
ATOM     17  C   UNL     1       9.716  -3.637  10.631  1.00  0.00    -0.010 C 
ATOM     18  C   UNL     1       7.262  -3.104  10.487  1.00  0.00    -0.010 C 
ATOM     19  C   UNL     1       7.536  -2.246   9.243  1.00  0.00     0.007 C 
ATOM     20  C   UNL     1       9.980  -2.777   9.391  1.00  0.00     0.007 C 
ATOM     21  C   UNL     1       8.301  -4.232  10.559  1.00  0.00     0.007 C 
ENDBRANCH   7  12
ENDBRANCH   5   6
ENDBRANCH   1   5
TORSDOF 4
ENDMDL
MODEL 6
REMARK VINA RESULT:    -6.235      8.149     10.675
REMARK INTER + INTRA:          -8.175
REMARK INTER:                  -7.602
REMARK INTRA:                  -0.573
REMARK UNBOUND:                -0.483
REMARK SMILES COC(=O)CC1C(=O)CCC1C12CC3CC(CC(C3)C1)C2
REMARK SMILES IDX 3 1 4 2 2 3 1 4 5 5 6 6 11 7 7 8 10 9 9 10 8 11 12 12 21 13
REMARK SMILES IDX 20 14 13 15 16 16 18 17 14 18 15 19 17 20 19 21
REMARK H PARENT
ROOT
ATOM      1  C   UNL     1       7.586   2.367  19.412  1.00  0.00     0.306 C 
ATOM      2  O   UNL     1       8.089   1.636  20.256  1.00  0.00    -0.252 OA
ENDROOT
BRANCH   1   3
ATOM      3  O   UNL     1       6.359   2.946  19.517  1.00  0.00    -0.469 OA
ATOM      4  C   UNL     1       5.617   2.955  18.298  1.00  0.00     0.282 C 
ENDBRANCH   1   3
BRANCH   1   5
ATOM      5  C   UNL     1       8.325   2.829  18.171  1.00  0.00     0.134 C 
BRANCH   5   6
ATOM      6  C   UNL     1       9.539   1.991  17.807  1.00  0.00     0.071 C 
ATOM      7  C   UNL     1       9.370   0.520  17.320  1.00  0.00     0.007 C 
ATOM      8  C   UNL     1      10.370   2.591  16.693  1.00  0.00     0.136 C 
ATOM      9  C   UNL     1      10.771   0.272  16.702  1.00  0.00     0.013 C 
ATOM     10  C   UNL     1      11.170   1.547  15.968  1.00  0.00     0.076 C 
ATOM     11  O   UNL     1      10.418   3.784  16.425  1.00  0.00    -0.299 OA
BRANCH   7  12
ATOM     12  C   UNL     1       8.148   0.086  16.413  1.00  0.00    -0.025 C 
ATOM     13  C   UNL     1       8.619  -0.976  15.360  1.00  0.00     0.011 C 
ATOM     14  C   UNL     1       7.048  -0.620  17.265  1.00  0.00     0.011 C 
ATOM     15  C   UNL     1       7.488   1.245  15.624  1.00  0.00     0.011 C 
ATOM     16  C   UNL     1       7.454  -1.481  14.489  1.00  0.00    -0.010 C 
ATOM     17  C   UNL     1       5.879  -1.120  16.399  1.00  0.00    -0.010 C 
ATOM     18  C   UNL     1       6.310   0.742  14.764  1.00  0.00    -0.010 C 
ATOM     19  C   UNL     1       6.828  -0.289  13.749  1.00  0.00     0.007 C 
ATOM     20  C   UNL     1       6.399  -2.140  15.382  1.00  0.00     0.007 C 
ATOM     21  C   UNL     1       5.258   0.078  15.664  1.00  0.00     0.007 C 
ENDBRANCH   7  12
ENDBRANCH   5   6
ENDBRANCH   1   5
TORSDOF 4
ENDMDL
MODEL 7
REMARK VINA RESULT:    -6.109      7.862     10.716
REMARK INTER + INTRA:          -8.020
REMARK INTER:                  -7.560
REMARK INTRA:                  -0.460
REMARK UNBOUND:                -0.483
REMARK SMILES COC(=O)CC1C(=O)CCC1C12CC3CC(CC(C3)C1)C2
REMARK SMILES IDX 3 1 4 2 2 3 1 4 5 5 6 6 11 7 7 8 10 9 9 10 8 11 12 12 21 13
REMARK SMILES IDX 20 14 13 15 16 16 18 17 14 18 15 19 17 20 19 21
REMARK H PARENT
ROOT
ATOM      1  C   UNL     1      12.121   1.742  15.276  1.00  0.00     0.306 C 
ATOM      2  O   UNL     1      11.660   2.478  14.411  1.00  0.00    -0.252 OA
ENDROOT
BRANCH   1   3
ATOM      3  O   UNL     1      13.405   1.782  15.725  1.00  0.00    -0.469 OA
ATOM      4  C   UNL     1      13.970   0.496  15.975  1.00  0.00     0.282 C 
ENDBRANCH   1   3
BRANCH   1   5
ATOM      5  C   UNL     1      11.277   0.756  16.058  1.00  0.00     0.134 C 
BRANCH   5   6
ATOM      6  C   UNL     1      10.566   1.345  17.264  1.00  0.00     0.071 C 
ATOM      7  C   UNL     1       9.063   1.752  17.177  1.00  0.00     0.007 C 
ATOM      8  C   UNL     1      10.567   0.429  18.470  1.00  0.00     0.136 C 
ATOM      9  C   UNL     1       8.724   1.877  18.686  1.00  0.00     0.013 C 
ATOM     10  C   UNL     1       9.426   0.728  19.400  1.00  0.00     0.076 C 
ATOM     11  O   UNL     1      11.408  -0.432  18.688  1.00  0.00    -0.299 OA
BRANCH   7  12
ATOM     12  C   UNL     1       8.029   0.913  16.322  1.00  0.00    -0.025 C 
ATOM     13  C   UNL     1       6.568   1.378  16.649  1.00  0.00     0.011 C 
ATOM     14  C   UNL     1       8.227   1.178  14.797  1.00  0.00     0.011 C 
ATOM     15  C   UNL     1       8.084  -0.616  16.564  1.00  0.00     0.011 C 
ATOM     16  C   UNL     1       5.522   0.637  15.796  1.00  0.00    -0.010 C 
ATOM     17  C   UNL     1       7.188   0.434  13.941  1.00  0.00    -0.010 C 
ATOM     18  C   UNL     1       7.046  -1.360  15.698  1.00  0.00    -0.010 C 
ATOM     19  C   UNL     1       5.636  -0.872  16.063  1.00  0.00     0.007 C 
ATOM     20  C   UNL     1       5.783   0.916  14.314  1.00  0.00     0.007 C 
ATOM     21  C   UNL     1       7.310  -1.074  14.213  1.00  0.00     0.007 C 
ENDBRANCH   7  12
ENDBRANCH   5   6
ENDBRANCH   1   5
TORSDOF 4
ENDMDL
MODEL 8
REMARK VINA RESULT:    -5.996      8.350     11.171
REMARK INTER + INTRA:          -7.881
REMARK INTER:                  -7.398
REMARK INTRA:                  -0.484
REMARK UNBOUND:                -0.483
REMARK SMILES COC(=O)CC1C(=O)CCC1C12CC3CC(CC(C3)C1)C2
REMARK SMILES IDX 3 1 4 2 2 3 1 4 5 5 6 6 11 7 7 8 10 9 9 10 8 11 12 12 21 13
REMARK SMILES IDX 20 14 13 15 16 16 18 17 14 18 15 19 17 20 19 21
REMARK H PARENT
ROOT
ATOM      1  C   UNL     1       8.995   1.509  20.350  1.00  0.00     0.306 C 
ATOM      2  O   UNL     1       8.121   1.090  21.101  1.00  0.00    -0.252 OA
ENDROOT
BRANCH   1   3
ATOM      3  O   UNL     1      10.288   1.731  20.711  1.00  0.00    -0.469 OA
ATOM      4  C   UNL     1      10.816   0.749  21.603  1.00  0.00     0.282 C 
ENDBRANCH   1   3
BRANCH   1   5
ATOM      5  C   UNL     1       8.778   1.722  18.865  1.00  0.00     0.134 C 
BRANCH   5   6
ATOM      6  C   UNL     1       9.942   1.299  17.986  1.00  0.00     0.071 C 
ATOM      7  C   UNL     1       9.802   0.092  17.010  1.00  0.00     0.007 C 
ATOM      8  C   UNL     1      10.420   2.394  17.055  1.00  0.00     0.136 C 
ATOM      9  C   UNL     1      11.031   0.334  16.094  1.00  0.00     0.013 C 
ATOM     10  C   UNL     1      11.117   1.836  15.847  1.00  0.00     0.076 C 
ATOM     11  O   UNL     1      10.289   3.592  17.264  1.00  0.00    -0.299 OA
BRANCH   7  12
ATOM     12  C   UNL     1       8.445  -0.203  16.251  1.00  0.00    -0.025 C 
ATOM     13  C   UNL     1       8.744  -0.880  14.870  1.00  0.00     0.011 C 
ATOM     14  C   UNL     1       7.576  -1.226  17.047  1.00  0.00     0.011 C 
ATOM     15  C   UNL     1       7.582   1.052  15.965  1.00  0.00     0.011 C 
ATOM     16  C   UNL     1       7.453  -1.247  14.115  1.00  0.00    -0.010 C 
ATOM     17  C   UNL     1       6.283  -1.590  16.299  1.00  0.00    -0.010 C 
ATOM     18  C   UNL     1       6.281   0.682  15.222  1.00  0.00    -0.010 C 
ATOM     19  C   UNL     1       6.632   0.029  13.876  1.00  0.00     0.007 C 
ATOM     20  C   UNL     1       6.635  -2.233  14.954  1.00  0.00     0.007 C 
ATOM     21  C   UNL     1       5.467  -0.309  16.066  1.00  0.00     0.007 C 
ENDBRANCH   7  12
ENDBRANCH   5   6
ENDBRANCH   1   5
TORSDOF 4
ENDMDL
