MODEL 1
REMARK VINA RESULT:    -7.144      0.000      0.000
REMARK INTER + INTRA:          -9.302
REMARK INTER:                  -8.814
REMARK INTRA:                  -0.488
REMARK UNBOUND:                -0.488
REMARK SMILES COC(=O)CC1C(=O)CCC1C12CC3CC(CC(C3)C1)C2
REMARK SMILES IDX 3 1 4 2 2 3 1 4 5 5 6 6 11 7 7 8 10 9 9 10 8 11 12 12 21 13
REMARK SMILES IDX 20 14 13 15 16 16 18 17 14 18 15 19 17 20 19 21
REMARK H PARENT
ROOT
ATOM      1  C   UNL     1       4.246  -3.245   6.131  1.00  0.00     0.306 C 
ATOM      2  O   UNL     1       3.898  -4.011   5.240  1.00  0.00    -0.252 OA
ENDROOT
BRANCH   1   3
ATOM      3  O   UNL     1       3.519  -2.180   6.567  1.00  0.00    -0.469 OA
ATOM      4  C   UNL     1       3.515  -1.075   5.663  1.00  0.00     0.282 C 
ENDBRANCH   1   3
BRANCH   1   5
ATOM      5  C   UNL     1       5.495  -3.456   6.963  1.00  0.00     0.134 C 
BRANCH   5   6
ATOM      6  C   UNL     1       6.768  -2.897   6.351  1.00  0.00     0.071 C 
ATOM      7  C   UNL     1       7.844  -2.210   7.246  1.00  0.00     0.007 C 
ATOM      8  C   UNL     1       7.592  -3.939   5.624  1.00  0.00     0.136 C 
ATOM      9  C   UNL     1       9.053  -2.212   6.273  1.00  0.00     0.013 C 
ATOM     10  C   UNL     1       9.041  -3.550   5.545  1.00  0.00     0.076 C 
ATOM     11  O   UNL     1       7.140  -4.962   5.128  1.00  0.00    -0.299 OA
BRANCH   7  12
ATOM     12  C   UNL     1       8.155  -2.730   8.707  1.00  0.00    -0.025 C 
ATOM     13  C   UNL     1       9.663  -2.475   9.052  1.00  0.00     0.011 C 
ATOM     14  C   UNL     1       7.337  -1.929   9.767  1.00  0.00     0.011 C 
ATOM     15  C   UNL     1       7.889  -4.241   8.924  1.00  0.00     0.011 C 
ATOM     16  C   UNL     1      10.007  -2.905  10.489  1.00  0.00    -0.010 C 
ATOM     17  C   UNL     1       7.673  -2.361  11.204  1.00  0.00    -0.010 C 
ATOM     18  C   UNL     1       8.219  -4.669  10.369  1.00  0.00    -0.010 C 
ATOM     19  C   UNL     1       9.706  -4.403  10.650  1.00  0.00     0.007 C 
ATOM     20  C   UNL     1       9.157  -2.104  11.479  1.00  0.00     0.007 C 
ATOM     21  C   UNL     1       7.368  -3.859  11.357  1.00  0.00     0.007 C 
ENDBRANCH   7  12
ENDBRANCH   5   6
ENDBRANCH   1   5
TORSDOF 4
ENDMDL
MODEL 2
REMARK VINA RESULT:    -6.771      6.576      9.316
REMARK INTER + INTRA:          -8.842
REMARK INTER:                  -8.314
REMARK INTRA:                  -0.528
REMARK UNBOUND:                -0.488
REMARK SMILES COC(=O)CC1C(=O)CCC1C12CC3CC(CC(C3)C1)C2
REMARK SMILES IDX 3 1 4 2 2 3 1 4 5 5 6 6 11 7 7 8 10 9 9 10 8 11 12 12 21 13
REMARK SMILES IDX 20 14 13 15 16 16 18 17 14 18 15 19 17 20 19 21
REMARK H PARENT
ROOT
ATOM      1  C   UNL     1      11.217   1.847  15.750  1.00  0.00     0.306 C 
ATOM      2  O   UNL     1      11.097   1.607  16.946  1.00  0.00    -0.252 OA
ENDROOT
BRANCH   1   3
ATOM      3  O   UNL     1      12.403   1.910  15.086  1.00  0.00    -0.469 OA
ATOM      4  C   UNL     1      13.514   1.428  15.841  1.00  0.00     0.282 C 
ENDBRANCH   1   3
BRANCH   1   5
ATOM      5  C   UNL     1      10.035   1.986  14.812  1.00  0.00     0.134 C 
BRANCH   5   6
ATOM      6  C   UNL     1       9.884   0.856  13.808  1.00  0.00     0.071 C 
ATOM      7  C   UNL     1       9.254  -0.505  14.236  1.00  0.00     0.007 C 
ATOM      8  C   UNL     1       9.035   1.225  12.610  1.00  0.00     0.136 C 
ATOM      9  C   UNL     1       8.946  -1.116  12.843  1.00  0.00     0.013 C 
ATOM     10  C   UNL     1       8.424   0.015  11.963  1.00  0.00     0.076 C 
ATOM     11  O   UNL     1       8.881   2.363  12.190  1.00  0.00    -0.299 OA
BRANCH   7  12
ATOM     12  C   UNL     1       8.066  -0.573  15.278  1.00  0.00    -0.025 C 
ATOM     13  C   UNL     1       7.096  -1.747  14.902  1.00  0.00     0.011 C 
ATOM     14  C   UNL     1       8.600  -0.905  16.706  1.00  0.00     0.011 C 
ATOM     15  C   UNL     1       7.209   0.715  15.363  1.00  0.00     0.011 C 
ATOM     16  C   UNL     1       5.953  -1.899  15.922  1.00  0.00    -0.010 C 
ATOM     17  C   UNL     1       7.461  -1.051  17.729  1.00  0.00    -0.010 C 
ATOM     18  C   UNL     1       6.072   0.567  16.396  1.00  0.00    -0.010 C 
ATOM     19  C   UNL     1       5.152  -0.590  15.976  1.00  0.00     0.007 C 
ATOM     20  C   UNL     1       6.540  -2.199  17.304  1.00  0.00     0.007 C 
ATOM     21  C   UNL     1       6.666   0.263  17.778  1.00  0.00     0.007 C 
ENDBRANCH   7  12
ENDBRANCH   5   6
ENDBRANCH   1   5
TORSDOF 4
ENDMDL
MODEL 3
REMARK VINA RESULT:    -6.674      3.146      5.739
REMARK INTER + INTRA:          -8.722
REMARK INTER:                  -8.315
REMARK INTRA:                  -0.407
REMARK UNBOUND:                -0.488
REMARK SMILES COC(=O)CC1C(=O)CCC1C12CC3CC(CC(C3)C1)C2
REMARK SMILES IDX 3 1 4 2 2 3 1 4 5 5 6 6 11 7 7 8 10 9 9 10 8 11 12 12 21 13
REMARK SMILES IDX 20 14 13 15 16 16 18 17 14 18 15 19 17 20 19 21
REMARK H PARENT
ROOT
ATOM      1  C   UNL     1       8.200  -0.650  11.590  1.00  0.00     0.306 C 
ATOM      2  O   UNL     1       8.835   0.395  11.672  1.00  0.00    -0.252 OA
ENDROOT
BRANCH   1   3
ATOM      3  O   UNL     1       7.448  -1.181  12.592  1.00  0.00    -0.469 OA
ATOM      4  C   UNL     1       8.113  -1.222  13.854  1.00  0.00     0.282 C 
ENDBRANCH   1   3
BRANCH   1   5
ATOM      5  C   UNL     1       8.067  -1.439  10.303  1.00  0.00     0.134 C 
BRANCH   5   6
ATOM      6  C   UNL     1       7.943  -2.942  10.490  1.00  0.00     0.071 C 
ATOM      7  C   UNL     1       7.214  -3.816   9.424  1.00  0.00     0.007 C 
ATOM      8  C   UNL     1       9.279  -3.645  10.603  1.00  0.00     0.136 C 
ATOM      9  C   UNL     1       7.713  -5.226   9.837  1.00  0.00     0.013 C 
ATOM     10  C   UNL     1       9.185  -5.091  10.206  1.00  0.00     0.076 C 
ATOM     11  O   UNL     1      10.311  -3.121  10.999  1.00  0.00    -0.299 OA
BRANCH   7  12
ATOM     12  C   UNL     1       7.319  -3.491   7.880  1.00  0.00    -0.025 C 
ATOM     13  C   UNL     1       7.328  -4.824   7.055  1.00  0.00     0.011 C 
ATOM     14  C   UNL     1       6.064  -2.701   7.393  1.00  0.00     0.011 C 
ATOM     15  C   UNL     1       8.585  -2.696   7.472  1.00  0.00     0.011 C 
ATOM     16  C   UNL     1       7.365  -4.565   5.538  1.00  0.00    -0.010 C 
ATOM     17  C   UNL     1       6.100  -2.434   5.879  1.00  0.00    -0.010 C 
ATOM     18  C   UNL     1       8.614  -2.423   5.954  1.00  0.00    -0.010 C 
ATOM     19  C   UNL     1       8.628  -3.760   5.198  1.00  0.00     0.007 C 
ATOM     20  C   UNL     1       6.124  -3.768   5.128  1.00  0.00     0.007 C 
ATOM     21  C   UNL     1       7.365  -1.628   5.547  1.00  0.00     0.007 C 
ENDBRANCH   7  12
ENDBRANCH   5   6
ENDBRANCH   1   5
TORSDOF 4
ENDMDL
MODEL 4
REMARK VINA RESULT:    -6.590      6.544      9.160
REMARK INTER + INTRA:          -8.619
REMARK INTER:                  -8.319
REMARK INTRA:                  -0.301
REMARK UNBOUND:                -0.488
REMARK SMILES COC(=O)CC1C(=O)CCC1C12CC3CC(CC(C3)C1)C2
REMARK SMILES IDX 3 1 4 2 2 3 1 4 5 5 6 6 11 7 7 8 10 9 9 10 8 11 12 12 21 13
REMARK SMILES IDX 20 14 13 15 16 16 18 17 14 18 15 19 17 20 19 21
REMARK H PARENT
ROOT
ATOM      1  C   UNL     1      11.106   1.834  15.794  1.00  0.00     0.306 C 
ATOM      2  O   UNL     1      11.028   1.494  16.968  1.00  0.00    -0.252 OA
ENDROOT
BRANCH   1   3
ATOM      3  O   UNL     1      12.268   2.091  15.135  1.00  0.00    -0.469 OA
ATOM      4  C   UNL     1      13.392   1.376  15.647  1.00  0.00     0.282 C 
ENDBRANCH   1   3
BRANCH   1   5
ATOM      5  C   UNL     1       9.906   1.897  14.870  1.00  0.00     0.134 C 
BRANCH   5   6
ATOM      6  C   UNL     1       9.826   0.768  13.855  1.00  0.00     0.071 C 
ATOM      7  C   UNL     1       9.238  -0.619  14.257  1.00  0.00     0.007 C 
ATOM      8  C   UNL     1       8.997   1.114  12.636  1.00  0.00     0.136 C 
ATOM      9  C   UNL     1       8.992  -1.230  12.852  1.00  0.00     0.013 C 
ATOM     10  C   UNL     1       8.451  -0.114  11.965  1.00  0.00     0.076 C 
ATOM     11  O   UNL     1       8.811   2.249  12.219  1.00  0.00    -0.299 OA
BRANCH   7  12
ATOM     12  C   UNL     1       8.024  -0.740  15.265  1.00  0.00    -0.025 C 
ATOM     13  C   UNL     1       8.559  -1.056  16.704  1.00  0.00     0.011 C 
ATOM     14  C   UNL     1       7.265   0.618  15.383  1.00  0.00     0.011 C 
ATOM     15  C   UNL     1       6.998  -1.845  14.908  1.00  0.00     0.011 C 
ATOM     16  C   UNL     1       7.422  -1.122  17.740  1.00  0.00    -0.010 C 
ATOM     17  C   UNL     1       6.124   0.554  16.413  1.00  0.00    -0.010 C 
ATOM     18  C   UNL     1       5.851  -1.900  15.939  1.00  0.00    -0.010 C 
ATOM     19  C   UNL     1       6.429  -2.219  17.326  1.00  0.00     0.007 C 
ATOM     20  C   UNL     1       6.702   0.228  17.793  1.00  0.00     0.007 C 
ATOM     21  C   UNL     1       5.135  -0.543  15.990  1.00  0.00     0.007 C 
ENDBRANCH   7  12
ENDBRANCH   5   6
ENDBRANCH   1   5
TORSDOF 4
ENDMDL
MODEL 5
REMARK VINA RESULT:    -6.271      8.240     10.769
REMARK INTER + INTRA:          -8.225
REMARK INTER:                  -7.604
REMARK INTRA:                  -0.621
REMARK UNBOUND:                -0.488
REMARK SMILES COC(=O)CC1C(=O)CCC1C12CC3CC(CC(C3)C1)C2
REMARK SMILES IDX 3 1 4 2 2 3 1 4 5 5 6 6 11 7 7 8 10 9 9 10 8 11 12 12 21 13
REMARK SMILES IDX 20 14 13 15 16 16 18 17 14 18 15 19 17 20 19 21
REMARK H PARENT
ROOT
ATOM      1  C   UNL     1       7.004   2.793  19.165  1.00  0.00     0.306 C 
ATOM      2  O   UNL     1       7.354   2.522  20.308  1.00  0.00    -0.252 OA
ENDROOT
BRANCH   1   3
ATOM      3  O   UNL     1       5.713   2.952  18.765  1.00  0.00    -0.469 OA
ATOM      4  C   UNL     1       5.575   3.617  17.510  1.00  0.00     0.282 C 
ENDBRANCH   1   3
BRANCH   1   5
ATOM      5  C   UNL     1       7.984   3.114  18.054  1.00  0.00     0.134 C 
BRANCH   5   6
ATOM      6  C   UNL     1       9.187   2.189  17.983  1.00  0.00     0.071 C 
ATOM      7  C   UNL     1       9.007   0.678  17.642  1.00  0.00     0.007 C 
ATOM      8  C   UNL     1      10.214   2.616  16.955  1.00  0.00     0.136 C 
ATOM      9  C   UNL     1      10.469   0.300  17.285  1.00  0.00     0.013 C 
ATOM     10  C   UNL     1      11.051   1.461  16.486  1.00  0.00     0.076 C 
ATOM     11  O   UNL     1      10.374   3.766  16.567  1.00  0.00    -0.299 OA
BRANCH   7  12
ATOM     12  C   UNL     1       7.915   0.191  16.606  1.00  0.00    -0.025 C 
ATOM     13  C   UNL     1       8.452  -1.047  15.809  1.00  0.00     0.011 C 
ATOM     14  C   UNL     1       6.632  -0.304  17.345  1.00  0.00     0.011 C 
ATOM     15  C   UNL     1       7.497   1.257  15.561  1.00  0.00     0.011 C 
ATOM     16  C   UNL     1       7.403  -1.603  14.830  1.00  0.00    -0.010 C 
ATOM     17  C   UNL     1       5.579  -0.854  16.368  1.00  0.00    -0.010 C 
ATOM     18  C   UNL     1       6.434   0.705  14.589  1.00  0.00    -0.010 C 
ATOM     19  C   UNL     1       7.015  -0.500  13.833  1.00  0.00     0.007 C 
ATOM     20  C   UNL     1       6.163  -2.048  15.609  1.00  0.00     0.007 C 
ATOM     21  C   UNL     1       5.195   0.255  15.377  1.00  0.00     0.007 C 
ENDBRANCH   7  12
ENDBRANCH   5   6
ENDBRANCH   1   5
TORSDOF 4
ENDMDL
MODEL 6
REMARK VINA RESULT:    -6.095      7.906     10.805
REMARK INTER + INTRA:          -8.008
REMARK INTER:                  -7.559
REMARK INTRA:                  -0.449
REMARK UNBOUND:                -0.488
REMARK SMILES COC(=O)CC1C(=O)CCC1C12CC3CC(CC(C3)C1)C2
REMARK SMILES IDX 3 1 4 2 2 3 1 4 5 5 6 6 11 7 7 8 10 9 9 10 8 11 12 12 21 13
REMARK SMILES IDX 20 14 13 15 16 16 18 17 14 18 15 19 17 20 19 21
REMARK H PARENT
ROOT
ATOM      1  C   UNL     1      12.043   1.734  15.316  1.00  0.00     0.306 C 
ATOM      2  O   UNL     1      11.548   2.474  14.474  1.00  0.00    -0.252 OA
ENDROOT
BRANCH   1   3
ATOM      3  O   UNL     1      13.348   1.757  15.700  1.00  0.00    -0.469 OA
ATOM      4  C   UNL     1      13.892   0.467  15.975  1.00  0.00     0.282 C 
ENDBRANCH   1   3
BRANCH   1   5
ATOM      5  C   UNL     1      11.227   0.760  16.144  1.00  0.00     0.134 C 
BRANCH   5   6
ATOM      6  C   UNL     1      10.482   1.387  17.309  1.00  0.00     0.071 C 
ATOM      7  C   UNL     1       8.997   1.837  17.151  1.00  0.00     0.007 C 
ATOM      8  C   UNL     1      10.403   0.488  18.525  1.00  0.00     0.136 C 
ATOM      9  C   UNL     1       8.596   1.992  18.642  1.00  0.00     0.013 C 
ATOM     10  C   UNL     1       9.232   0.833  19.401  1.00  0.00     0.076 C 
ATOM     11  O   UNL     1      11.206  -0.395  18.791  1.00  0.00    -0.299 OA
BRANCH   7  12
ATOM     12  C   UNL     1       7.977   1.018  16.262  1.00  0.00    -0.025 C 
ATOM     13  C   UNL     1       6.518   1.537  16.511  1.00  0.00     0.011 C 
ATOM     14  C   UNL     1       8.255   1.248  14.744  1.00  0.00     0.011 C 
ATOM     15  C   UNL     1       7.968  -0.508  16.532  1.00  0.00     0.011 C 
ATOM     16  C   UNL     1       5.489   0.815  15.622  1.00  0.00    -0.010 C 
ATOM     17  C   UNL     1       7.233   0.523  13.853  1.00  0.00    -0.010 C 
ATOM     18  C   UNL     1       6.947  -1.233  15.630  1.00  0.00    -0.010 C 
ATOM     19  C   UNL     1       5.539  -0.691  15.920  1.00  0.00     0.007 C 
ATOM     20  C   UNL     1       5.829   1.058  14.149  1.00  0.00     0.007 C 
ATOM     21  C   UNL     1       7.290  -0.983  14.155  1.00  0.00     0.007 C 
ENDBRANCH   7  12
ENDBRANCH   5   6
ENDBRANCH   1   5
TORSDOF 4
ENDMDL
MODEL 7
REMARK VINA RESULT:    -6.070      7.185     10.207
REMARK INTER + INTRA:          -7.978
REMARK INTER:                  -7.546
REMARK INTRA:                  -0.432
REMARK UNBOUND:                -0.488
REMARK SMILES COC(=O)CC1C(=O)CCC1C12CC3CC(CC(C3)C1)C2
REMARK SMILES IDX 3 1 4 2 2 3 1 4 5 5 6 6 11 7 7 8 10 9 9 10 8 11 12 12 21 13
REMARK SMILES IDX 20 14 13 15 16 16 18 17 14 18 15 19 17 20 19 21
REMARK H PARENT
ROOT
ATOM      1  C   UNL     1      12.419  -1.603  16.613  1.00  0.00     0.306 C 
ATOM      2  O   UNL     1      12.352  -2.707  16.086  1.00  0.00    -0.252 OA
ENDROOT
BRANCH   1   3
ATOM      3  O   UNL     1      13.576  -0.973  16.952  1.00  0.00    -0.469 OA
ATOM      4  C   UNL     1      14.618  -1.118  15.987  1.00  0.00     0.282 C 
ENDBRANCH   1   3
BRANCH   1   5
ATOM      5  C   UNL     1      11.206  -0.725  16.850  1.00  0.00     0.134 C 
BRANCH   5   6
ATOM      6  C   UNL     1      11.324   0.684  16.295  1.00  0.00     0.071 C 
ATOM      7  C   UNL     1      10.564   1.092  14.996  1.00  0.00     0.007 C 
ATOM      8  C   UNL     1      10.867   1.752  17.267  1.00  0.00     0.136 C 
ATOM      9  C   UNL     1      10.658   2.637  15.096  1.00  0.00     0.013 C 
ATOM     10  C   UNL     1      10.441   3.006  16.559  1.00  0.00     0.076 C 
ATOM     11  O   UNL     1      10.870   1.633  18.484  1.00  0.00    -0.299 OA
BRANCH   7  12
ATOM     12  C   UNL     1       9.124   0.524  14.671  1.00  0.00    -0.025 C 
ATOM     13  C   UNL     1       8.466   1.370  13.526  1.00  0.00     0.011 C 
ATOM     14  C   UNL     1       9.213  -0.934  14.122  1.00  0.00     0.011 C 
ATOM     15  C   UNL     1       8.140   0.537  15.868  1.00  0.00     0.011 C 
ATOM     16  C   UNL     1       7.085   0.821  13.125  1.00  0.00    -0.010 C 
ATOM     17  C   UNL     1       7.835  -1.488  13.726  1.00  0.00    -0.010 C 
ATOM     18  C   UNL     1       6.761  -0.027  15.469  1.00  0.00    -0.010 C 
ATOM     19  C   UNL     1       6.161   0.840  14.352  1.00  0.00     0.007 C 
ATOM     20  C   UNL     1       7.235  -0.616  12.619  1.00  0.00     0.007 C 
ATOM     21  C   UNL     1       6.918  -1.467  14.959  1.00  0.00     0.007 C 
ENDBRANCH   7  12
ENDBRANCH   5   6
ENDBRANCH   1   5
TORSDOF 4
ENDMDL
MODEL 8
REMARK VINA RESULT:    -6.038      8.316     11.264
REMARK INTER + INTRA:          -7.937
REMARK INTER:                  -7.466
REMARK INTRA:                  -0.471
REMARK UNBOUND:                -0.488
REMARK SMILES COC(=O)CC1C(=O)CCC1C12CC3CC(CC(C3)C1)C2
REMARK SMILES IDX 3 1 4 2 2 3 1 4 5 5 6 6 11 7 7 8 10 9 9 10 8 11 12 12 21 13
REMARK SMILES IDX 20 14 13 15 16 16 18 17 14 18 15 19 17 20 19 21
REMARK H PARENT
ROOT
ATOM      1  C   UNL     1       9.064   1.753  20.414  1.00  0.00     0.306 C 
ATOM      2  O   UNL     1      10.178   2.087  20.801  1.00  0.00    -0.252 OA
ENDROOT
BRANCH   1   3
ATOM      3  O   UNL     1       7.978   1.593  21.218  1.00  0.00    -0.469 OA
ATOM      4  C   UNL     1       8.182   0.669  22.286  1.00  0.00     0.282 C 
ENDBRANCH   1   3
BRANCH   1   5
ATOM      5  C   UNL     1       8.713   1.590  18.948  1.00  0.00     0.134 C 
BRANCH   5   6
ATOM      6  C   UNL     1       9.887   1.242  18.049  1.00  0.00     0.071 C 
ATOM      7  C   UNL     1       9.779   0.075  17.020  1.00  0.00     0.007 C 
ATOM      8  C   UNL     1      10.329   2.391  17.167  1.00  0.00     0.136 C 
ATOM      9  C   UNL     1      10.997   0.395  16.114  1.00  0.00     0.013 C 
ATOM     10  C   UNL     1      11.039   1.908  15.934  1.00  0.00     0.076 C 
ATOM     11  O   UNL     1      10.163   3.574  17.430  1.00  0.00    -0.299 OA
BRANCH   7  12
ATOM     12  C   UNL     1       8.429  -0.225  16.252  1.00  0.00    -0.025 C 
ATOM     13  C   UNL     1       8.742  -0.890  14.867  1.00  0.00     0.011 C 
ATOM     14  C   UNL     1       7.565  -1.262  17.035  1.00  0.00     0.011 C 
ATOM     15  C   UNL     1       7.557   1.024  15.969  1.00  0.00     0.011 C 
ATOM     16  C   UNL     1       7.459  -1.263  14.102  1.00  0.00    -0.010 C 
ATOM     17  C   UNL     1       6.279  -1.632  16.277  1.00  0.00    -0.010 C 
ATOM     18  C   UNL     1       6.264   0.649  15.216  1.00  0.00    -0.010 C 
ATOM     19  C   UNL     1       6.629   0.009  13.868  1.00  0.00     0.007 C 
ATOM     20  C   UNL     1       6.645  -2.261  14.929  1.00  0.00     0.007 C 
ATOM     21  C   UNL     1       5.454  -0.356  16.048  1.00  0.00     0.007 C 
ENDBRANCH   7  12
ENDBRANCH   5   6
ENDBRANCH   1   5
TORSDOF 4
ENDMDL
MODEL 9
REMARK VINA RESULT:    -5.934      8.574     11.569
REMARK INTER + INTRA:          -7.809
REMARK INTER:                  -7.471
REMARK INTRA:                  -0.338
REMARK UNBOUND:                -0.488
REMARK SMILES COC(=O)CC1C(=O)CCC1C12CC3CC(CC(C3)C1)C2
REMARK SMILES IDX 3 1 4 2 2 3 1 4 5 5 6 6 11 7 7 8 10 9 9 10 8 11 12 12 21 13
REMARK SMILES IDX 20 14 13 15 16 16 18 17 14 18 15 19 17 20 19 21
REMARK H PARENT
ROOT
ATOM      1  C   UNL     1      11.854   2.053  17.251  1.00  0.00     0.306 C 
ATOM      2  O   UNL     1      12.574   2.452  18.159  1.00  0.00    -0.252 OA
ENDROOT
BRANCH   1   3
ATOM      3  O   UNL     1      12.170   2.108  15.928  1.00  0.00    -0.469 OA
ATOM      4  C   UNL     1      13.358   1.396  15.588  1.00  0.00     0.282 C 
ENDBRANCH   1   3
BRANCH   1   5
ATOM      5  C   UNL     1      10.549   1.322  17.491  1.00  0.00     0.134 C 
BRANCH   5   6
ATOM      6  C   UNL     1       9.518   2.107  18.284  1.00  0.00     0.071 C 
ATOM      7  C   UNL     1       8.124   2.435  17.667  1.00  0.00     0.007 C 
ATOM      8  C   UNL     1       9.128   1.442  19.588  1.00  0.00     0.136 C 
ATOM      9  C   UNL     1       7.344   2.836  18.947  1.00  0.00     0.013 C 
ATOM     10  C   UNL     1       7.766   1.873  20.050  1.00  0.00     0.076 C 
ATOM     11  O   UNL     1       9.840   0.670  20.215  1.00  0.00    -0.299 OA
BRANCH   7  12
ATOM     12  C   UNL     1       7.380   1.410  16.719  1.00  0.00    -0.025 C 
ATOM     13  C   UNL     1       5.921   1.909  16.437  1.00  0.00     0.011 C 
ATOM     14  C   UNL     1       8.079   1.335  15.326  1.00  0.00     0.011 C 
ATOM     15  C   UNL     1       7.266  -0.028  17.287  1.00  0.00     0.011 C 
ATOM     16  C   UNL     1       5.170   0.980  15.467  1.00  0.00    -0.010 C 
ATOM     17  C   UNL     1       7.336   0.401  14.356  1.00  0.00    -0.010 C 
ATOM     18  C   UNL     1       6.527  -0.963  16.308  1.00  0.00    -0.010 C 
ATOM     19  C   UNL     1       5.105  -0.431  16.073  1.00  0.00     0.007 C 
ATOM     20  C   UNL     1       5.915   0.929  14.130  1.00  0.00     0.007 C 
ATOM     21  C   UNL     1       7.277  -1.006  14.968  1.00  0.00     0.007 C 
ENDBRANCH   7  12
ENDBRANCH   5   6
ENDBRANCH   1   5
TORSDOF 4
ENDMDL
