REMARK SMILES CC(=O)C1C2CC3CC1CC(C)(C3)C2
REMARK SMILES IDX 12 1 11 2 14 3 5 4 6 5 7 6 13 7 8 8 9 9 10 10 4 11 2 12 3 13
REMARK SMILES IDX 1 14
REMARK H PARENT
ROOT
ATOM      1  C   UNL     1      -2.323   1.878  -0.246  1.00  0.00     0.011 C 
ATOM      2  C   UNL     1      -1.348   0.709  -0.074  1.00  0.00    -0.032 C 
ATOM      3  C   UNL     1      -0.759   0.297  -1.441  1.00  0.00     0.011 C 
ATOM      4  C   UNL     1       0.235  -0.870  -1.275  1.00  0.00     0.000 C 
ATOM      5  C   UNL     1      -0.521  -2.068  -0.666  1.00  0.00     0.008 C 
ATOM      6  C   UNL     1      -1.101  -1.686   0.706  1.00  0.00    -0.010 C 
ATOM      7  C   UNL     1      -2.078  -0.511   0.534  1.00  0.00     0.010 C 
ATOM      8  C   UNL     1       0.038  -1.256   1.644  1.00  0.00     0.008 C 
ATOM      9  C   UNL     1       0.798  -0.057   1.043  1.00  0.00     0.000 C 
ATOM     10  C   UNL     1      -0.186   1.114   0.861  1.00  0.00     0.011 C 
ATOM     11  C   UNL     1       1.390  -0.483  -0.319  1.00  0.00     0.062 C 
ENDROOT
BRANCH  11  12
ATOM     12  C   UNL     1       2.352   0.548  -0.922  1.00  0.00     0.133 C 
ATOM     13  O   UNL     1       2.275   0.918  -2.094  1.00  0.00    -0.300 OA
ATOM     14  C   UNL     1       3.456   1.069  -0.036  1.00  0.00     0.088 C 
ENDBRANCH  11  12
TORSDOF 1
