REMARK SMILES COC(=O)CC1C(=O)CCC1C12CC3CC(CC(C3)C1)C2
REMARK SMILES IDX 3 1 4 2 2 3 1 4 5 5 6 6 11 7 7 8 10 9 9 10 8 11 12 12 21 13
REMARK SMILES IDX 20 14 13 15 16 16 18 17 14 18 15 19 17 20 19 21
REMARK H PARENT
ROOT
ATOM      1  C   UNL     1       3.508   1.457  -0.513  1.00  0.00     0.306 C 
ATOM      2  O   UNL     1       3.814   2.050  -1.541  1.00  0.00    -0.252 OA
ENDROOT
BRANCH   1   3
ATOM      3  O   UNL     1       4.382   1.100   0.467  1.00  0.00    -0.469 OA
ATOM      4  C   UNL     1       5.747   1.370   0.150  1.00  0.00     0.282 C 
ENDBRANCH   1   3
BRANCH   1   5
ATOM      5  C   UNL     1       2.074   1.145  -0.134  1.00  0.00     0.134 C 
BRANCH   5   6
ATOM      6  C   UNL     1       1.894  -0.128   0.675  1.00  0.00     0.071 C 
ATOM      7  C   UNL     1       0.501  -0.500   1.269  1.00  0.00     0.007 C 
ATOM      8  C   UNL     1       2.245  -1.384  -0.095  1.00  0.00     0.136 C 
ATOM      9  C   UNL     1       0.735  -1.997   1.603  1.00  0.00     0.013 C 
ATOM     10  C   UNL     1       1.542  -2.592   0.455  1.00  0.00     0.076 C 
ATOM     11  O   UNL     1       3.029  -1.429  -1.033  1.00  0.00    -0.299 OA
BRANCH   7  12
ATOM     12  C   UNL     1      -0.839  -0.186   0.489  1.00  0.00    -0.025 C 
ATOM     13  C   UNL     1      -2.060  -0.790   1.265  1.00  0.00     0.011 C 
ATOM     14  C   UNL     1      -1.096   1.352   0.425  1.00  0.00     0.011 C 
ATOM     15  C   UNL     1      -0.893  -0.751  -0.953  1.00  0.00     0.011 C 
ATOM     16  C   UNL     1      -3.399  -0.459   0.582  1.00  0.00    -0.010 C 
ATOM     17  C   UNL     1      -2.430   1.687  -0.263  1.00  0.00    -0.010 C 
ATOM     18  C   UNL     1      -2.229  -0.406  -1.643  1.00  0.00    -0.010 C 
ATOM     19  C   UNL     1      -3.387  -1.026  -0.846  1.00  0.00     0.007 C 
ATOM     20  C   UNL     1      -3.582   1.060   0.528  1.00  0.00     0.007 C 
ATOM     21  C   UNL     1      -2.409   1.118  -1.690  1.00  0.00     0.007 C 
ENDBRANCH   7  12
ENDBRANCH   5   6
ENDBRANCH   1   5
TORSDOF 4
