REMARK SMILES CC(=O)C1C2CC3CC1CC(C)(C3)C2
REMARK SMILES IDX 12 1 11 2 14 3 5 4 6 5 7 6 13 7 8 8 9 9 10 10 4 11 2 12 3 13
REMARK SMILES IDX 1 14
REMARK H PARENT
ROOT
ATOM      1  C   UNL     1      -2.707  -1.836   0.090  1.00  0.00     0.011 C 
ATOM      2  C   UNL     1      -1.547  -0.837   0.064  1.00  0.00    -0.032 C 
ATOM      3  C   UNL     1      -0.903  -0.726   1.467  1.00  0.00     0.011 C 
ATOM      4  C   UNL     1       0.272   0.274   1.446  1.00  0.00     0.000 C 
ATOM      5  C   UNL     1      -0.271   1.652   1.019  1.00  0.00     0.008 C 
ATOM      6  C   UNL     1      -0.892   1.567  -0.383  1.00  0.00    -0.010 C 
ATOM      7  C   UNL     1      -2.055   0.561  -0.359  1.00  0.00     0.010 C 
ATOM      8  C   UNL     1       0.176   1.092  -1.380  1.00  0.00     0.008 C 
ATOM      9  C   UNL     1       0.707  -0.294  -0.971  1.00  0.00     0.000 C 
ATOM     10  C   UNL     1      -0.469  -1.291  -0.948  1.00  0.00     0.011 C 
ATOM     11  C   UNL     1       1.332  -0.240   0.441  1.00  0.00     0.062 C 
ENDROOT
BRANCH  11  12
ATOM     12  C   UNL     1       2.648   0.545   0.501  1.00  0.00     0.133 C 
ATOM     13  O   UNL     1       2.866   1.406   1.354  1.00  0.00    -0.300 OA
ATOM     14  C   UNL     1       3.716   0.188  -0.503  1.00  0.00     0.088 C 
ENDBRANCH  11  12
TORSDOF 1
