REMARK SMILES COC(=O)CC1C(=O)CCC1C12CC3CC(CC(C3)C1)C2
REMARK SMILES IDX 3 1 4 2 2 3 1 4 5 5 6 6 11 7 7 8 10 9 9 10 8 11 12 12 21 13
REMARK SMILES IDX 20 14 13 15 16 16 18 17 14 18 15 19 17 20 19 21
REMARK H PARENT
ROOT
ATOM      1  C   UNL     1       3.562   0.377   0.120  1.00  0.00     0.306 C 
ATOM      2  O   UNL     1       3.513   0.171  -1.084  1.00  0.00    -0.252 OA
ENDROOT
BRANCH   1   3
ATOM      3  O   UNL     1       4.575   1.024   0.762  1.00  0.00    -0.469 OA
ATOM      4  C   UNL     1       5.650   1.414  -0.092  1.00  0.00     0.282 C 
ENDBRANCH   1   3
BRANCH   1   5
ATOM      5  C   UNL     1       2.485   0.003   1.117  1.00  0.00     0.134 C 
BRANCH   5   6
ATOM      6  C   UNL     1       1.516  -1.087   0.646  1.00  0.00     0.071 C 
ATOM      7  C   UNL     1       0.549  -0.714  -0.510  1.00  0.00     0.007 C 
ATOM      8  C   UNL     1       2.295  -2.257   0.072  1.00  0.00     0.136 C 
ATOM      9  C   UNL     1       0.438  -2.020  -1.326  1.00  0.00     0.013 C 
ATOM     10  C   UNL     1       1.820  -2.651  -1.295  1.00  0.00     0.076 C 
ATOM     11  O   UNL     1       3.226  -2.800   0.655  1.00  0.00    -0.299 OA
BRANCH   7  12
ATOM     12  C   UNL     1      -0.843  -0.104  -0.109  1.00  0.00    -0.025 C 
ATOM     13  C   UNL     1      -1.642   0.244  -1.402  1.00  0.00     0.011 C 
ATOM     14  C   UNL     1      -1.728  -1.053   0.750  1.00  0.00     0.011 C 
ATOM     15  C   UNL     1      -0.659   1.211   0.697  1.00  0.00     0.011 C 
ATOM     16  C   UNL     1      -2.994   0.896  -1.071  1.00  0.00    -0.010 C 
ATOM     17  C   UNL     1      -3.084  -0.399   1.084  1.00  0.00    -0.010 C 
ATOM     18  C   UNL     1      -2.010   1.872   1.022  1.00  0.00    -0.010 C 
ATOM     19  C   UNL     1      -2.752   2.190  -0.282  1.00  0.00     0.007 C 
ATOM     20  C   UNL     1      -3.828  -0.075  -0.221  1.00  0.00     0.007 C 
ATOM     21  C   UNL     1      -2.849   0.901   1.866  1.00  0.00     0.007 C 
ENDBRANCH   7  12
ENDBRANCH   5   6
ENDBRANCH   1   5
TORSDOF 4
