MODEL 1
REMARK VINA RESULT:    -6.580      0.000      0.000
REMARK INTER + INTRA:          -8.737
REMARK INTER:                  -8.119
REMARK INTRA:                  -0.618
REMARK UNBOUND:                -0.618
REMARK SMILES COC(=O)CC1C(=O)CCC1C12CC3CC(CC(C3)C1)C2
REMARK SMILES IDX 3 1 4 2 2 3 1 4 5 5 6 6 11 7 7 8 10 9 9 10 8 11 12 12 21 13
REMARK SMILES IDX 20 14 13 15 16 16 18 17 14 18 15 19 17 20 19 21
REMARK H PARENT
ROOT
ATOM      1  C   UNL     1      11.413   1.885  15.619  1.00  0.00     0.306 C 
ATOM      2  O   UNL     1      12.531   1.811  15.123  1.00  0.00    -0.252 OA
ENDROOT
BRANCH   1   3
ATOM      3  O   UNL     1      11.161   2.015  16.950  1.00  0.00    -0.469 OA
ATOM      4  C   UNL     1       9.936   2.685  17.243  1.00  0.00     0.282 C 
ENDBRANCH   1   3
BRANCH   1   5
ATOM      5  C   UNL     1      10.145   1.964  14.793  1.00  0.00     0.134 C 
BRANCH   5   6
ATOM      6  C   UNL     1       9.958   0.825  13.805  1.00  0.00     0.071 C 
ATOM      7  C   UNL     1       9.286  -0.509  14.252  1.00  0.00     0.007 C 
ATOM      8  C   UNL     1       9.121   1.204  12.602  1.00  0.00     0.136 C 
ATOM      9  C   UNL     1       8.959  -1.129  12.868  1.00  0.00     0.013 C 
ATOM     10  C   UNL     1       8.472   0.004  11.972  1.00  0.00     0.076 C 
ATOM     11  O   UNL     1       9.003   2.341  12.166  1.00  0.00    -0.299 OA
BRANCH   7  12
ATOM     12  C   UNL     1       8.097  -0.525  15.294  1.00  0.00    -0.025 C 
ATOM     13  C   UNL     1       7.090  -1.672  14.935  1.00  0.00     0.011 C 
ATOM     14  C   UNL     1       8.620  -0.854  16.728  1.00  0.00     0.011 C 
ATOM     15  C   UNL     1       7.281   0.791  15.362  1.00  0.00     0.011 C 
ATOM     16  C   UNL     1       5.942  -1.774  15.956  1.00  0.00    -0.010 C 
ATOM     17  C   UNL     1       7.477  -0.950  17.752  1.00  0.00    -0.010 C 
ATOM     18  C   UNL     1       6.141   0.694  16.397  1.00  0.00    -0.010 C 
ATOM     19  C   UNL     1       5.184  -0.438  15.993  1.00  0.00     0.007 C 
ATOM     20  C   UNL     1       6.519  -2.073  17.342  1.00  0.00     0.007 C 
ATOM     21  C   UNL     1       6.725   0.389  17.784  1.00  0.00     0.007 C 
ENDBRANCH   7  12
ENDBRANCH   5   6
ENDBRANCH   1   5
TORSDOF 4
ENDMDL
MODEL 2
REMARK VINA RESULT:    -6.453      0.478      1.996
REMARK INTER + INTRA:          -8.580
REMARK INTER:                  -8.314
REMARK INTRA:                  -0.266
REMARK UNBOUND:                -0.618
REMARK SMILES COC(=O)CC1C(=O)CCC1C12CC3CC(CC(C3)C1)C2
REMARK SMILES IDX 3 1 4 2 2 3 1 4 5 5 6 6 11 7 7 8 10 9 9 10 8 11 12 12 21 13
REMARK SMILES IDX 20 14 13 15 16 16 18 17 14 18 15 19 17 20 19 21
REMARK H PARENT
ROOT
ATOM      1  C   UNL     1      11.200   2.061  15.750  1.00  0.00     0.306 C 
ATOM      2  O   UNL     1      11.196   2.174  16.971  1.00  0.00    -0.252 OA
ENDROOT
BRANCH   1   3
ATOM      3  O   UNL     1      12.313   1.862  14.993  1.00  0.00    -0.469 OA
ATOM      4  C   UNL     1      13.439   1.392  15.733  1.00  0.00     0.282 C 
ENDBRANCH   1   3
BRANCH   1   5
ATOM      5  C   UNL     1       9.933   2.004  14.920  1.00  0.00     0.134 C 
BRANCH   5   6
ATOM      6  C   UNL     1       9.889   0.876  13.905  1.00  0.00     0.071 C 
ATOM      7  C   UNL     1       9.316  -0.521  14.296  1.00  0.00     0.007 C 
ATOM      8  C   UNL     1       9.075   1.208  12.672  1.00  0.00     0.136 C 
ATOM      9  C   UNL     1       9.105  -1.136  12.887  1.00  0.00     0.013 C 
ATOM     10  C   UNL     1       8.561  -0.029  11.991  1.00  0.00     0.076 C 
ATOM     11  O   UNL     1       8.878   2.340  12.252  1.00  0.00    -0.299 OA
BRANCH   7  12
ATOM     12  C   UNL     1       8.089  -0.662  15.283  1.00  0.00    -0.025 C 
ATOM     13  C   UNL     1       8.604  -0.955  16.734  1.00  0.00     0.011 C 
ATOM     14  C   UNL     1       7.296   0.679  15.377  1.00  0.00     0.011 C 
ATOM     15  C   UNL     1       7.094  -1.793  14.918  1.00  0.00     0.011 C 
ATOM     16  C   UNL     1       7.451  -1.039  17.750  1.00  0.00    -0.010 C 
ATOM     17  C   UNL     1       6.139   0.596  16.387  1.00  0.00    -0.010 C 
ATOM     18  C   UNL     1       5.930  -1.868  15.928  1.00  0.00    -0.010 C 
ATOM     19  C   UNL     1       6.491  -2.162  17.327  1.00  0.00     0.007 C 
ATOM     20  C   UNL     1       6.699   0.294  17.780  1.00  0.00     0.007 C 
ATOM     21  C   UNL     1       5.183  -0.527  15.956  1.00  0.00     0.007 C 
ENDBRANCH   7  12
ENDBRANCH   5   6
ENDBRANCH   1   5
TORSDOF 4
ENDMDL
MODEL 3
REMARK VINA RESULT:    -6.216      5.454      8.498
REMARK INTER + INTRA:          -8.288
REMARK INTER:                  -8.162
REMARK INTRA:                  -0.126
REMARK UNBOUND:                -0.618
REMARK SMILES COC(=O)CC1C(=O)CCC1C12CC3CC(CC(C3)C1)C2
REMARK SMILES IDX 3 1 4 2 2 3 1 4 5 5 6 6 11 7 7 8 10 9 9 10 8 11 12 12 21 13
REMARK SMILES IDX 20 14 13 15 16 16 18 17 14 18 15 19 17 20 19 21
REMARK H PARENT
ROOT
ATOM      1  C   UNL     1       7.524  -0.959  11.717  1.00  0.00     0.306 C 
ATOM      2  O   UNL     1       7.013  -1.364  12.755  1.00  0.00    -0.252 OA
ENDROOT
BRANCH   1   3
ATOM      3  O   UNL     1       8.298   0.156  11.616  1.00  0.00    -0.469 OA
ATOM      4  C   UNL     1       8.455   0.863  12.845  1.00  0.00     0.282 C 
ENDBRANCH   1   3
BRANCH   1   5
ATOM      5  C   UNL     1       7.462  -1.726  10.411  1.00  0.00     0.134 C 
BRANCH   5   6
ATOM      6  C   UNL     1       7.703  -3.221  10.541  1.00  0.00     0.071 C 
ATOM      7  C   UNL     1       7.217  -4.202   9.431  1.00  0.00     0.007 C 
ATOM      8  C   UNL     1       9.169  -3.585  10.653  1.00  0.00     0.136 C 
ATOM      9  C   UNL     1       8.038  -5.465   9.801  1.00  0.00     0.013 C 
ATOM     10  C   UNL     1       9.431  -4.994  10.202  1.00  0.00     0.076 C 
ATOM     11  O   UNL     1      10.040  -2.843  11.087  1.00  0.00    -0.299 OA
BRANCH   7  12
ATOM     12  C   UNL     1       7.254  -3.800   7.901  1.00  0.00    -0.025 C 
ATOM     13  C   UNL     1       5.922  -3.073   7.510  1.00  0.00     0.011 C 
ATOM     14  C   UNL     1       8.396  -2.772   7.625  1.00  0.00     0.011 C 
ATOM     15  C   UNL     1       7.424  -4.992   6.925  1.00  0.00     0.011 C 
ATOM     16  C   UNL     1       5.930  -2.602   6.044  1.00  0.00    -0.010 C 
ATOM     17  C   UNL     1       8.411  -2.304   6.160  1.00  0.00    -0.010 C 
ATOM     18  C   UNL     1       7.448  -4.519   5.457  1.00  0.00    -0.010 C 
ATOM     19  C   UNL     1       6.119  -3.821   5.128  1.00  0.00     0.007 C 
ATOM     20  C   UNL     1       7.082  -1.617   5.831  1.00  0.00     0.007 C 
ATOM     21  C   UNL     1       8.602  -3.528   5.251  1.00  0.00     0.007 C 
ENDBRANCH   7  12
ENDBRANCH   5   6
ENDBRANCH   1   5
TORSDOF 4
ENDMDL
MODEL 4
REMARK VINA RESULT:    -6.171      1.071      1.290
REMARK INTER + INTRA:          -8.233
REMARK INTER:                  -7.886
REMARK INTRA:                  -0.347
REMARK UNBOUND:                -0.618
REMARK SMILES COC(=O)CC1C(=O)CCC1C12CC3CC(CC(C3)C1)C2
REMARK SMILES IDX 3 1 4 2 2 3 1 4 5 5 6 6 11 7 7 8 10 9 9 10 8 11 12 12 21 13
REMARK SMILES IDX 20 14 13 15 16 16 18 17 14 18 15 19 17 20 19 21
REMARK H PARENT
ROOT
ATOM      1  C   UNL     1      12.533   1.599  16.460  1.00  0.00     0.306 C 
ATOM      2  O   UNL     1      13.389   1.422  15.601  1.00  0.00    -0.252 OA
ENDROOT
BRANCH   1   3
ATOM      3  O   UNL     1      12.728   2.279  17.623  1.00  0.00    -0.469 OA
ATOM      4  C   UNL     1      11.545   2.883  18.144  1.00  0.00     0.282 C 
ENDBRANCH   1   3
BRANCH   1   5
ATOM      5  C   UNL     1      11.086   1.182  16.284  1.00  0.00     0.134 C 
BRANCH   5   6
ATOM      6  C   UNL     1      10.681   0.885  14.850  1.00  0.00     0.071 C 
ATOM      7  C   UNL     1       9.568  -0.162  14.541  1.00  0.00     0.007 C 
ATOM      8  C   UNL     1      10.174   2.102  14.105  1.00  0.00     0.136 C 
ATOM      9  C   UNL     1       9.248   0.203  13.068  1.00  0.00     0.013 C 
ATOM     10  C   UNL     1       9.269   1.724  12.968  1.00  0.00     0.076 C 
ATOM     11  O   UNL     1      10.482   3.256  14.367  1.00  0.00    -0.299 OA
BRANCH   7  12
ATOM     12  C   UNL     1       8.307  -0.328  15.482  1.00  0.00    -0.025 C 
ATOM     13  C   UNL     1       7.279  -1.312  14.825  1.00  0.00     0.011 C 
ATOM     14  C   UNL     1       8.711  -0.983  16.840  1.00  0.00     0.011 C 
ATOM     15  C   UNL     1       7.548   0.989  15.781  1.00  0.00     0.011 C 
ATOM     16  C   UNL     1       6.058  -1.560  15.729  1.00  0.00    -0.010 C 
ATOM     17  C   UNL     1       7.495  -1.226  17.750  1.00  0.00    -0.010 C 
ATOM     18  C   UNL     1       6.334   0.743  16.700  1.00  0.00    -0.010 C 
ATOM     19  C   UNL     1       5.359  -0.220  16.006  1.00  0.00     0.007 C 
ATOM     20  C   UNL     1       6.520  -2.179  17.051  1.00  0.00     0.007 C 
ATOM     21  C   UNL     1       6.803   0.119  18.022  1.00  0.00     0.007 C 
ENDBRANCH   7  12
ENDBRANCH   5   6
ENDBRANCH   1   5
TORSDOF 4
ENDMDL
MODEL 5
REMARK VINA RESULT:    -6.120      2.143      3.816
REMARK INTER + INTRA:          -8.169
REMARK INTER:                  -7.540
REMARK INTRA:                  -0.629
REMARK UNBOUND:                -0.618
REMARK SMILES COC(=O)CC1C(=O)CCC1C12CC3CC(CC(C3)C1)C2
REMARK SMILES IDX 3 1 4 2 2 3 1 4 5 5 6 6 11 7 7 8 10 9 9 10 8 11 12 12 21 13
REMARK SMILES IDX 20 14 13 15 16 16 18 17 14 18 15 19 17 20 19 21
REMARK H PARENT
ROOT
ATOM      1  C   UNL     1       7.407   2.531  19.355  1.00  0.00     0.306 C 
ATOM      2  O   UNL     1       7.907   2.054  20.367  1.00  0.00    -0.252 OA
ENDROOT
BRANCH   1   3
ATOM      3  O   UNL     1       6.106   2.910  19.236  1.00  0.00    -0.469 OA
ATOM      4  C   UNL     1       5.704   3.184  17.895  1.00  0.00     0.282 C 
ENDBRANCH   1   3
BRANCH   1   5
ATOM      5  C   UNL     1       8.214   2.880  18.120  1.00  0.00     0.134 C 
BRANCH   5   6
ATOM      6  C   UNL     1       9.423   1.993  17.881  1.00  0.00     0.071 C 
ATOM      7  C   UNL     1       9.243   0.505  17.451  1.00  0.00     0.007 C 
ATOM      8  C   UNL     1      10.347   2.515  16.800  1.00  0.00     0.136 C 
ATOM      9  C   UNL     1      10.675   0.189  16.944  1.00  0.00     0.013 C 
ATOM     10  C   UNL     1      11.162   1.415  16.181  1.00  0.00     0.076 C 
ATOM     11  O   UNL     1      10.450   3.692  16.481  1.00  0.00    -0.299 OA
BRANCH   7  12
ATOM     12  C   UNL     1       8.073   0.062  16.482  1.00  0.00    -0.025 C 
ATOM     13  C   UNL     1       8.559  -1.113  15.564  1.00  0.00     0.011 C 
ATOM     14  C   UNL     1       6.866  -0.504  17.292  1.00  0.00     0.011 C 
ATOM     15  C   UNL     1       7.552   1.182  15.547  1.00  0.00     0.011 C 
ATOM     16  C   UNL     1       7.438  -1.627  14.643  1.00  0.00    -0.010 C 
ATOM     17  C   UNL     1       5.741  -1.013  16.375  1.00  0.00    -0.010 C 
ATOM     18  C   UNL     1       6.418   0.671  14.634  1.00  0.00    -0.010 C 
ATOM     19  C   UNL     1       6.950  -0.471  13.755  1.00  0.00     0.007 C 
ATOM     20  C   UNL     1       6.276  -2.145  15.494  1.00  0.00     0.007 C 
ATOM     21  C   UNL     1       5.258   0.149  15.493  1.00  0.00     0.007 C 
ENDBRANCH   7  12
ENDBRANCH   5   6
ENDBRANCH   1   5
TORSDOF 4
ENDMDL
MODEL 6
REMARK VINA RESULT:    -5.961      2.202      4.067
REMARK INTER + INTRA:          -7.973
REMARK INTER:                  -7.530
REMARK INTRA:                  -0.443
REMARK UNBOUND:                -0.618
REMARK SMILES COC(=O)CC1C(=O)CCC1C12CC3CC(CC(C3)C1)C2
REMARK SMILES IDX 3 1 4 2 2 3 1 4 5 5 6 6 11 7 7 8 10 9 9 10 8 11 12 12 21 13
REMARK SMILES IDX 20 14 13 15 16 16 18 17 14 18 15 19 17 20 19 21
REMARK H PARENT
ROOT
ATOM      1  C   UNL     1      12.548  -1.723  16.495  1.00  0.00     0.306 C 
ATOM      2  O   UNL     1      12.554  -2.843  15.997  1.00  0.00    -0.252 OA
ENDROOT
BRANCH   1   3
ATOM      3  O   UNL     1      13.659  -1.039  16.882  1.00  0.00    -0.469 OA
ATOM      4  C   UNL     1      14.765  -1.182  15.991  1.00  0.00     0.282 C 
ENDBRANCH   1   3
BRANCH   1   5
ATOM      5  C   UNL     1      11.291  -0.888  16.636  1.00  0.00     0.134 C 
BRANCH   5   6
ATOM      6  C   UNL     1      11.414   0.535  16.119  1.00  0.00     0.071 C 
ATOM      7  C   UNL     1      10.642   0.983  14.839  1.00  0.00     0.007 C 
ATOM      8  C   UNL     1      10.974   1.580  17.124  1.00  0.00     0.136 C 
ATOM      9  C   UNL     1      10.748   2.525  14.980  1.00  0.00     0.013 C 
ATOM     10  C   UNL     1      10.549   2.856  16.455  1.00  0.00     0.076 C 
ATOM     11  O   UNL     1      10.989   1.427  18.337  1.00  0.00    -0.299 OA
BRANCH   7  12
ATOM     12  C   UNL     1       9.195   0.435  14.514  1.00  0.00    -0.025 C 
ATOM     13  C   UNL     1       8.508   1.349  13.442  1.00  0.00     0.011 C 
ATOM     14  C   UNL     1       9.271  -0.986  13.874  1.00  0.00     0.011 C 
ATOM     15  C   UNL     1       8.241   0.370  15.734  1.00  0.00     0.011 C 
ATOM     16  C   UNL     1       7.118   0.824  13.040  1.00  0.00    -0.010 C 
ATOM     17  C   UNL     1       7.884  -1.517  13.477  1.00  0.00    -0.010 C 
ATOM     18  C   UNL     1       6.852  -0.171  15.334  1.00  0.00    -0.010 C 
ATOM     19  C   UNL     1       6.225   0.764  14.289  1.00  0.00     0.007 C 
ATOM     20  C   UNL     1       7.256  -0.579  12.442  1.00  0.00     0.007 C 
ATOM     21  C   UNL     1       6.998  -1.575  14.731  1.00  0.00     0.007 C 
ENDBRANCH   7  12
ENDBRANCH   5   6
ENDBRANCH   1   5
TORSDOF 4
ENDMDL
MODEL 7
REMARK VINA RESULT:    -5.956      1.740      4.088
REMARK INTER + INTRA:          -7.967
REMARK INTER:                  -7.516
REMARK INTRA:                  -0.451
REMARK UNBOUND:                -0.618
REMARK SMILES COC(=O)CC1C(=O)CCC1C12CC3CC(CC(C3)C1)C2
REMARK SMILES IDX 3 1 4 2 2 3 1 4 5 5 6 6 11 7 7 8 10 9 9 10 8 11 12 12 21 13
REMARK SMILES IDX 20 14 13 15 16 16 18 17 14 18 15 19 17 20 19 21
REMARK H PARENT
ROOT
ATOM      1  C   UNL     1      12.074   1.714  15.331  1.00  0.00     0.306 C 
ATOM      2  O   UNL     1      11.573   2.385  14.437  1.00  0.00    -0.252 OA
ENDROOT
BRANCH   1   3
ATOM      3  O   UNL     1      13.376   1.788  15.720  1.00  0.00    -0.469 OA
ATOM      4  C   UNL     1      13.975   0.518  15.978  1.00  0.00     0.282 C 
ENDBRANCH   1   3
BRANCH   1   5
ATOM      5  C   UNL     1      11.270   0.785  16.219  1.00  0.00     0.134 C 
BRANCH   5   6
ATOM      6  C   UNL     1      10.544   1.471  17.363  1.00  0.00     0.071 C 
ATOM      7  C   UNL     1       9.044   1.875  17.221  1.00  0.00     0.007 C 
ATOM      8  C   UNL     1      10.523   0.653  18.637  1.00  0.00     0.136 C 
ATOM      9  C   UNL     1       8.684   2.120  18.710  1.00  0.00     0.013 C 
ATOM     10  C   UNL     1       9.370   1.029  19.524  1.00  0.00     0.076 C 
ATOM     11  O   UNL     1      11.356  -0.191  18.936  1.00  0.00    -0.299 OA
BRANCH   7  12
ATOM     12  C   UNL     1       8.019   0.975  16.420  1.00  0.00    -0.025 C 
ATOM     13  C   UNL     1       6.556   1.474  16.681  1.00  0.00     0.011 C 
ATOM     14  C   UNL     1       8.246   1.111  14.882  1.00  0.00     0.011 C 
ATOM     15  C   UNL     1       8.058  -0.530  16.789  1.00  0.00     0.011 C 
ATOM     16  C   UNL     1       5.520   0.672  15.874  1.00  0.00    -0.010 C 
ATOM     17  C   UNL     1       7.216   0.305  14.073  1.00  0.00    -0.010 C 
ATOM     18  C   UNL     1       7.030  -1.337  15.969  1.00  0.00    -0.010 C 
ATOM     19  C   UNL     1       5.617  -0.811  16.267  1.00  0.00     0.007 C 
ATOM     20  C   UNL     1       5.809   0.825  14.378  1.00  0.00     0.007 C 
ATOM     21  C   UNL     1       7.322  -1.176  14.470  1.00  0.00     0.007 C 
ENDBRANCH   7  12
ENDBRANCH   5   6
ENDBRANCH   1   5
TORSDOF 4
ENDMDL
MODEL 8
REMARK VINA RESULT:    -5.943      2.232      3.793
REMARK INTER + INTRA:          -7.951
REMARK INTER:                  -7.500
REMARK INTRA:                  -0.451
REMARK UNBOUND:                -0.618
REMARK SMILES COC(=O)CC1C(=O)CCC1C12CC3CC(CC(C3)C1)C2
REMARK SMILES IDX 3 1 4 2 2 3 1 4 5 5 6 6 11 7 7 8 10 9 9 10 8 11 12 12 21 13
REMARK SMILES IDX 20 14 13 15 16 16 18 17 14 18 15 19 17 20 19 21
REMARK H PARENT
ROOT
ATOM      1  C   UNL     1       9.087   1.492  20.325  1.00  0.00     0.306 C 
ATOM      2  O   UNL     1      10.102   1.943  20.842  1.00  0.00    -0.252 OA
ENDROOT
BRANCH   1   3
ATOM      3  O   UNL     1       8.044   0.948  21.008  1.00  0.00    -0.469 OA
ATOM      4  C   UNL     1       8.311   0.729  22.393  1.00  0.00     0.282 C 
ENDBRANCH   1   3
BRANCH   1   5
ATOM      5  C   UNL     1       8.800   1.593  18.840  1.00  0.00     0.134 C 
BRANCH   5   6
ATOM      6  C   UNL     1       9.968   1.224  17.941  1.00  0.00     0.071 C 
ATOM      7  C   UNL     1       9.842   0.056  16.916  1.00  0.00     0.007 C 
ATOM      8  C   UNL     1      10.427   2.363  17.055  1.00  0.00     0.136 C 
ATOM      9  C   UNL     1      11.064   0.354  16.008  1.00  0.00     0.013 C 
ATOM     10  C   UNL     1      11.129   1.865  15.823  1.00  0.00     0.076 C 
ATOM     11  O   UNL     1      10.279   3.550  17.313  1.00  0.00    -0.299 OA
BRANCH   7  12
ATOM     12  C   UNL     1       8.487  -0.227  16.150  1.00  0.00    -0.025 C 
ATOM     13  C   UNL     1       8.790  -0.887  14.760  1.00  0.00     0.011 C 
ATOM     14  C   UNL     1       7.615  -1.260  16.929  1.00  0.00     0.011 C 
ATOM     15  C   UNL     1       7.626   1.033  15.877  1.00  0.00     0.011 C 
ATOM     16  C   UNL     1       7.502  -1.242  13.997  1.00  0.00    -0.010 C 
ATOM     17  C   UNL     1       6.323  -1.612  16.173  1.00  0.00    -0.010 C 
ATOM     18  C   UNL     1       6.328   0.674  15.125  1.00  0.00    -0.010 C 
ATOM     19  C   UNL     1       6.683   0.038  13.772  1.00  0.00     0.007 C 
ATOM     20  C   UNL     1       6.680  -2.237  14.820  1.00  0.00     0.007 C 
ATOM     21  C   UNL     1       5.510  -0.327  15.953  1.00  0.00     0.007 C 
ENDBRANCH   7  12
ENDBRANCH   5   6
ENDBRANCH   1   5
TORSDOF 4
ENDMDL
MODEL 9
REMARK VINA RESULT:    -5.481      6.666      9.214
REMARK INTER + INTRA:          -7.381
REMARK INTER:                  -7.123
REMARK INTRA:                  -0.258
REMARK UNBOUND:                -0.618
REMARK SMILES COC(=O)CC1C(=O)CCC1C12CC3CC(CC(C3)C1)C2
REMARK SMILES IDX 3 1 4 2 2 3 1 4 5 5 6 6 11 7 7 8 10 9 9 10 8 11 12 12 21 13
REMARK SMILES IDX 20 14 13 15 16 16 18 17 14 18 15 19 17 20 19 21
REMARK H PARENT
ROOT
ATOM      1  C   UNL     1       4.381  -3.088   6.290  1.00  0.00     0.306 C 
ATOM      2  O   UNL     1       3.313  -3.642   6.523  1.00  0.00    -0.252 OA
ENDROOT
BRANCH   1   3
ATOM      3  O   UNL     1       4.530  -1.983   5.510  1.00  0.00    -0.469 OA
ATOM      4  C   UNL     1       3.503  -1.008   5.689  1.00  0.00     0.282 C 
ENDBRANCH   1   3
BRANCH   1   5
ATOM      5  C   UNL     1       5.685  -3.495   6.949  1.00  0.00     0.134 C 
BRANCH   5   6
ATOM      6  C   UNL     1       6.929  -2.899   6.314  1.00  0.00     0.071 C 
ATOM      7  C   UNL     1       7.986  -2.154   7.187  1.00  0.00     0.007 C 
ATOM      8  C   UNL     1       7.788  -3.922   5.600  1.00  0.00     0.136 C 
ATOM      9  C   UNL     1       9.186  -2.127   6.203  1.00  0.00     0.013 C 
ATOM     10  C   UNL     1       9.219  -3.479   5.500  1.00  0.00     0.076 C 
ATOM     11  O   UNL     1       7.372  -4.971   5.127  1.00  0.00    -0.299 OA
BRANCH   7  12
ATOM     12  C   UNL     1       8.329  -2.633   8.655  1.00  0.00    -0.025 C 
ATOM     13  C   UNL     1       7.318  -2.000   9.671  1.00  0.00     0.011 C 
ATOM     14  C   UNL     1       8.154  -4.178   8.789  1.00  0.00     0.011 C 
ATOM     15  C   UNL     1       9.753  -2.259   9.138  1.00  0.00     0.011 C 
ATOM     16  C   UNL     1       7.567  -2.484  11.111  1.00  0.00    -0.010 C 
ATOM     17  C   UNL     1       8.409  -4.666  10.225  1.00  0.00    -0.010 C 
ATOM     18  C   UNL     1      10.008  -2.757  10.576  1.00  0.00    -0.010 C 
ATOM     19  C   UNL     1       8.996  -2.102  11.528  1.00  0.00     0.007 C 
ATOM     20  C   UNL     1       7.404  -4.005  11.173  1.00  0.00     0.007 C 
ATOM     21  C   UNL     1       9.840  -4.282  10.633  1.00  0.00     0.007 C 
ENDBRANCH   7  12
ENDBRANCH   5   6
ENDBRANCH   1   5
TORSDOF 4
ENDMDL
