REMARK SMILES CCCCC[C@H]1CCC(=O)[C@H]1CC(=O)OC
REMARK SMILES IDX 11 1 6 2 7 3 8 4 9 5 10 6 12 7 13 8 14 9 15 10 16 11 5 12
REMARK SMILES IDX 4 13 3 14 2 15 1 16
REMARK H PARENT
ROOT
ATOM      1  C   UNL     1      -1.505  -1.028  -0.048  1.00  0.00     0.070 C 
ATOM      2  C   UNL     1      -0.030  -1.431  -0.303  1.00  0.00     0.000 C 
ATOM      3  C   UNL     1       0.313  -2.211   0.978  1.00  0.00     0.012 C 
ATOM      4  C   UNL     1      -0.290  -1.396   2.117  1.00  0.00     0.076 C 
ATOM      5  C   UNL     1      -1.473  -0.750   1.443  1.00  0.00     0.136 C 
ATOM      6  O   UNL     1      -2.304  -0.074   2.036  1.00  0.00    -0.299 OA
ENDROOT
BRANCH   1   7
ATOM      7  C   UNL     1      -2.027   0.161  -0.842  1.00  0.00     0.134 C 
BRANCH   7   8
ATOM      8  C   UNL     1      -3.538   0.205  -0.824  1.00  0.00     0.306 C 
ATOM      9  O   UNL     1      -4.262  -0.781  -0.854  1.00  0.00    -0.252 OA
BRANCH   8  10
ATOM     10  O   UNL     1      -3.968   1.497  -0.835  1.00  0.00    -0.469 OA
ATOM     11  C   UNL     1      -5.388   1.634  -0.801  1.00  0.00     0.282 C 
ENDBRANCH   8  10
ENDBRANCH   7   8
ENDBRANCH   1   7
BRANCH   2  12
ATOM     12  C   UNL     1       0.916  -0.239  -0.566  1.00  0.00     0.004 C 
BRANCH  12  13
ATOM     13  C   UNL     1       2.367  -0.663  -0.818  1.00  0.00     0.000 C 
BRANCH  13  14
ATOM     14  C   UNL     1       3.254   0.484  -1.315  1.00  0.00    -0.000 C 
BRANCH  14  15
ATOM     15  C   UNL     1       3.365   1.690  -0.378  1.00  0.00    -0.003 C 
ATOM     16  C   UNL     1       3.925   1.345   0.993  1.00  0.00     0.004 C 
ENDBRANCH  14  15
ENDBRANCH  13  14
ENDBRANCH  12  13
ENDBRANCH   2  12
TORSDOF 7
