REMARK SMILES CCCCC[C@H]1CCC(=O)[C@@H]1CC(=O)OC
REMARK SMILES IDX 11 1 6 2 7 3 8 4 9 5 10 6 12 7 13 8 14 9 15 10 16 11 5 12
REMARK SMILES IDX 4 13 3 14 2 15 1 16
REMARK H PARENT
ROOT
ATOM      1  C   UNL     1      -1.660  -1.197  -0.426  1.00  0.00     0.070 C 
ATOM      2  C   UNL     1      -0.435  -0.296  -0.695  1.00  0.00     0.000 C 
ATOM      3  C   UNL     1      -0.213  -0.441  -2.206  1.00  0.00     0.012 C 
ATOM      4  C   UNL     1      -1.612  -0.428  -2.811  1.00  0.00     0.076 C 
ATOM      5  C   UNL     1      -2.420  -1.099  -1.733  1.00  0.00     0.136 C 
ATOM      6  O   UNL     1      -3.558  -1.525  -1.890  1.00  0.00    -0.299 OA
ENDROOT
BRANCH   1   7
ATOM      7  C   UNL     1      -2.506  -0.816   0.785  1.00  0.00     0.134 C 
BRANCH   7   8
ATOM      8  C   UNL     1      -3.290   0.469   0.627  1.00  0.00     0.306 C 
ATOM      9  O   UNL     1      -3.053   1.346  -0.192  1.00  0.00    -0.252 OA
BRANCH   8  10
ATOM     10  O   UNL     1      -4.273   0.522   1.570  1.00  0.00    -0.469 OA
ATOM     11  C   UNL     1      -5.081   1.697   1.499  1.00  0.00     0.282 C 
ENDBRANCH   8  10
ENDBRANCH   7   8
ENDBRANCH   1   7
BRANCH   2  12
ATOM     12  C   UNL     1       0.783  -0.705   0.143  1.00  0.00     0.004 C 
BRANCH  12  13
ATOM     13  C   UNL     1       1.996   0.199  -0.096  1.00  0.00     0.000 C 
BRANCH  13  14
ATOM     14  C   UNL     1       3.164  -0.189   0.814  1.00  0.00    -0.000 C 
BRANCH  14  15
ATOM     15  C   UNL     1       4.376   0.710   0.576  1.00  0.00    -0.003 C 
ATOM     16  C   UNL     1       5.539   0.328   1.478  1.00  0.00     0.004 C 
ENDBRANCH  14  15
ENDBRANCH  13  14
ENDBRANCH  12  13
ENDBRANCH   2  12
TORSDOF 7
