REMARK SMILES CCCCC[C@H]1CCC(=O)[C@@H]1CC(=O)OC
REMARK SMILES IDX 11 1 6 2 7 3 8 4 9 5 10 6 12 7 13 8 14 9 15 10 16 11 5 12
REMARK SMILES IDX 4 13 3 14 2 15 1 16
REMARK H PARENT
ROOT
ATOM      1  C   UNL     1       1.599  -0.484   0.135  1.00  0.00     0.070 C 
ATOM      2  C   UNL     1       0.064  -0.303   0.184  1.00  0.00     0.000 C 
ATOM      3  C   UNL     1      -0.401  -1.564   0.928  1.00  0.00     0.012 C 
ATOM      4  C   UNL     1       0.598  -1.733   2.065  1.00  0.00     0.076 C 
ATOM      5  C   UNL     1       1.856  -1.171   1.461  1.00  0.00     0.136 C 
ATOM      6  O   UNL     1       2.956  -1.246   1.994  1.00  0.00    -0.299 OA
ENDROOT
BRANCH   1   7
ATOM      7  C   UNL     1       2.353   0.839   0.048  1.00  0.00     0.134 C 
BRANCH   7   8
ATOM      8  C   UNL     1       3.765   0.622  -0.442  1.00  0.00     0.306 C 
ATOM      9  O   UNL     1       4.085  -0.187  -1.303  1.00  0.00    -0.252 OA
BRANCH   8  10
ATOM     10  O   UNL     1       4.612   1.498   0.166  1.00  0.00    -0.469 OA
ATOM     11  C   UNL     1       5.977   1.352  -0.226  1.00  0.00     0.282 C 
ENDBRANCH   8  10
ENDBRANCH   7   8
ENDBRANCH   1   7
BRANCH   2  12
ATOM     12  C   UNL     1      -0.541  -0.163  -1.221  1.00  0.00     0.004 C 
BRANCH  12  13
ATOM     13  C   UNL     1      -1.856   0.623  -1.284  1.00  0.00     0.000 C 
BRANCH  13  14
ATOM     14  C   UNL     1      -3.017  -0.015  -0.525  1.00  0.00    -0.000 C 
BRANCH  14  15
ATOM     15  C   UNL     1      -4.335   0.703  -0.823  1.00  0.00    -0.003 C 
ATOM     16  C   UNL     1      -5.493   0.082  -0.057  1.00  0.00     0.004 C 
ENDBRANCH  14  15
ENDBRANCH  13  14
ENDBRANCH  12  13
ENDBRANCH   2  12
TORSDOF 7
