REMARK SMILES CCCCC[C@H]1CCC(=O)[C@H]1CC(=O)OC
REMARK SMILES IDX 11 1 6 2 7 3 8 4 9 5 10 6 12 7 13 8 14 9 15 10 16 11 5 12
REMARK SMILES IDX 4 13 3 14 2 15 1 16
REMARK H PARENT
ROOT
ATOM      1  C   UNL     1       1.574  -0.186   0.393  1.00  0.00     0.070 C 
ATOM      2  C   UNL     1       0.133  -0.718   0.617  1.00  0.00     0.000 C 
ATOM      3  C   UNL     1      -0.108  -1.619  -0.600  1.00  0.00     0.012 C 
ATOM      4  C   UNL     1       1.202  -2.376  -0.780  1.00  0.00     0.076 C 
ATOM      5  C   UNL     1       2.214  -1.378  -0.289  1.00  0.00     0.136 C 
ATOM      6  O   UNL     1       3.423  -1.516  -0.425  1.00  0.00    -0.299 OA
ENDROOT
BRANCH   1   7
ATOM      7  C   UNL     1       1.694   1.039  -0.516  1.00  0.00     0.134 C 
BRANCH   7   8
ATOM      8  C   UNL     1       3.119   1.517  -0.680  1.00  0.00     0.306 C 
ATOM      9  O   UNL     1       3.615   1.795  -1.764  1.00  0.00    -0.252 OA
BRANCH   8  10
ATOM     10  O   UNL     1       3.725   1.673   0.527  1.00  0.00    -0.469 OA
ATOM     11  C   UNL     1       5.085   2.097   0.439  1.00  0.00     0.282 C 
ENDBRANCH   8  10
ENDBRANCH   7   8
ENDBRANCH   1   7
BRANCH   2  12
ATOM     12  C   UNL     1      -0.914   0.386   0.823  1.00  0.00     0.004 C 
BRANCH  12  13
ATOM     13  C   UNL     1      -2.192  -0.048   1.553  1.00  0.00     0.000 C 
BRANCH  13  14
ATOM     14  C   UNL     1      -3.154  -0.970   0.802  1.00  0.00    -0.000 C 
BRANCH  14  15
ATOM     15  C   UNL     1      -3.621  -0.474  -0.568  1.00  0.00    -0.003 C 
ATOM     16  C   UNL     1      -4.362   0.853  -0.512  1.00  0.00     0.004 C 
ENDBRANCH  14  15
ENDBRANCH  13  14
ENDBRANCH  12  13
ENDBRANCH   2  12
TORSDOF 7
