REMARK SMILES OCCc1ccccc1
REMARK SMILES IDX 2 1 3 2 4 3 7 4 6 5 8 6 5 7 9 8 1 9
REMARK H PARENT 1 10
ROOT
ATOM      1  C   UNL     1      -2.371  -0.204   0.307  1.00  0.00     0.161 C 
ENDROOT
BRANCH   1   2
ATOM      2  C   UNL     1      -1.181  -0.966   0.891  1.00  0.00     0.063 C 
BRANCH   2   3
ATOM      3  C   UNL     1       0.148  -0.400   0.446  1.00  0.00    -0.046 A 
ATOM      4  C   UNL     1       2.608   0.663  -0.385  1.00  0.00     0.000 A 
ATOM      5  C   UNL     1       1.860   1.318   0.590  1.00  0.00     0.000 A 
ATOM      6  C   UNL     1       2.133  -0.520  -0.949  1.00  0.00     0.000 A 
ATOM      7  C   UNL     1       0.636   0.790   1.004  1.00  0.00     0.004 A 
ATOM      8  C   UNL     1       0.908  -1.049  -0.537  1.00  0.00     0.004 A 
ENDBRANCH   2   3
ENDBRANCH   1   2
BRANCH   1   9
ATOM      9  O   UNL     1      -2.600   1.000   1.033  1.00  0.00    -0.396 OA
ATOM     10  H   UNL     1      -3.297   1.487   0.561  1.00  0.00     0.210 HD
ENDBRANCH   1   9
TORSDOF 3
