REMARK SMILES OCCc1ccccc1
REMARK SMILES IDX 2 1 3 2 4 3 7 4 6 5 8 6 5 7 9 8 1 9
REMARK H PARENT 1 10
ROOT
ATOM      1  C   UNL     1       2.373  -0.466  -0.450  1.00  0.00     0.161 C 
ENDROOT
BRANCH   1   2
ATOM      2  C   UNL     1       1.076  -0.495  -1.258  1.00  0.00     0.063 C 
BRANCH   2   3
ATOM      3  C   UNL     1      -0.136  -0.168  -0.416  1.00  0.00    -0.046 A 
ATOM      4  C   UNL     1      -2.358   0.452   1.178  1.00  0.00     0.000 A 
ATOM      5  C   UNL     1      -1.802   1.424   0.348  1.00  0.00     0.000 A 
ATOM      6  C   UNL     1      -1.808  -0.828   1.215  1.00  0.00     0.000 A 
ATOM      7  C   UNL     1      -0.696   1.116  -0.445  1.00  0.00     0.004 A 
ATOM      8  C   UNL     1      -0.702  -1.138   0.423  1.00  0.00     0.004 A 
ENDBRANCH   2   3
ENDBRANCH   1   2
BRANCH   1   9
ATOM      9  O   UNL     1       2.711   0.863  -0.065  1.00  0.00    -0.396 OA
ATOM     10  H   UNL     1       2.002   1.173   0.527  1.00  0.00     0.210 HD
ENDBRANCH   1   9
TORSDOF 3
