REMARK SMILES CCCCCC1C(=O)CCC1CC(=O)OC
REMARK SMILES IDX 6 1 11 2 10 3 9 4 7 5 8 6 5 7 4 8 3 9 2 10 1 11 12 12 13 13
REMARK SMILES IDX 14 14 15 15 16 16
REMARK H PARENT
ROOT
ATOM      1  C   UNL     1       0.277   0.614  -0.985  1.00  0.00     0.060 C 
ATOM      2  C   UNL     1       1.549  -0.065  -0.429  1.00  0.00     0.011 C 
ATOM      3  C   UNL     1       2.516  -0.043  -1.619  1.00  0.00     0.013 C 
ATOM      4  C   UNL     1       1.655  -0.425  -2.813  1.00  0.00     0.076 C 
ATOM      5  C   UNL     1       0.324   0.173  -2.440  1.00  0.00     0.136 C 
ATOM      6  O   UNL     1      -0.604   0.285  -3.231  1.00  0.00    -0.299 OA
ENDROOT
BRANCH   1   7
ATOM      7  C   UNL     1      -0.993   0.157  -0.260  1.00  0.00     0.012 C 
BRANCH   7   8
ATOM      8  C   UNL     1      -2.189   1.073  -0.547  1.00  0.00     0.001 C 
BRANCH   8   9
ATOM      9  C   UNL     1      -3.430   0.725   0.281  1.00  0.00    -0.000 C 
BRANCH   9  10
ATOM     10  C   UNL     1      -4.029  -0.638  -0.067  1.00  0.00    -0.003 C 
ATOM     11  C   UNL     1      -5.322  -0.887   0.696  1.00  0.00     0.004 C 
ENDBRANCH   9  10
ENDBRANCH   8   9
ENDBRANCH   7   8
ENDBRANCH   1   7
BRANCH   2  12
ATOM     12  C   UNL     1       2.110   0.658   0.801  1.00  0.00     0.127 C 
BRANCH  12  13
ATOM     13  C   UNL     1       3.240  -0.102   1.460  1.00  0.00     0.305 C 
ATOM     14  O   UNL     1       3.577  -1.245   1.188  1.00  0.00    -0.252 OA
BRANCH  13  15
ATOM     15  O   UNL     1       3.814   0.680   2.417  1.00  0.00    -0.469 OA
ATOM     16  C   UNL     1       4.891   0.050   3.113  1.00  0.00     0.282 C 
ENDBRANCH  13  15
ENDBRANCH  12  13
ENDBRANCH   2  12
TORSDOF 7
