MODEL 1
REMARK VINA RESULT:    -5.442      0.000      0.000
REMARK INTER + INTRA:          -8.393
REMARK INTER:                  -7.669
REMARK INTRA:                  -0.725
REMARK UNBOUND:                -0.725
REMARK SMILES CCCCCC1C(=O)CCC1CC(=O)OC
REMARK SMILES IDX 6 1 11 2 10 3 9 4 7 5 8 6 5 7 4 8 3 9 2 10 1 11 12 12 13 13
REMARK SMILES IDX 14 14 15 15 16 16
REMARK H PARENT
ROOT
ATOM      1  C   UNL     1       9.448  -3.210   8.515  1.00  0.00     0.060 C 
ATOM      2  C   UNL     1       8.302  -3.609   7.558  1.00  0.00     0.011 C 
ATOM      3  C   UNL     1       8.870  -3.294   6.169  1.00  0.00     0.013 C 
ATOM      4  C   UNL     1       9.568  -1.954   6.341  1.00  0.00     0.076 C 
ATOM      5  C   UNL     1      10.065  -2.042   7.760  1.00  0.00     0.136 C 
ATOM      6  O   UNL     1      10.874  -1.256   8.235  1.00  0.00    -0.299 OA
ENDROOT
BRANCH   1   7
ATOM      7  C   UNL     1       8.938  -2.822   9.907  1.00  0.00     0.012 C 
BRANCH   7   8
ATOM      8  C   UNL     1       7.636  -2.015   9.845  1.00  0.00     0.001 C 
BRANCH   8   9
ATOM      9  C   UNL     1       7.243  -1.397  11.191  1.00  0.00    -0.000 C 
BRANCH   9  10
ATOM     10  C   UNL     1       7.492  -2.324  12.380  1.00  0.00    -0.003 C 
ATOM     11  C   UNL     1       7.305  -1.594  13.702  1.00  0.00     0.004 C 
ENDBRANCH   9  10
ENDBRANCH   8   9
ENDBRANCH   7   8
ENDBRANCH   1   7
BRANCH   2  12
ATOM     12  C   UNL     1       7.897  -5.080   7.710  1.00  0.00     0.127 C 
BRANCH  12  13
ATOM     13  C   UNL     1       6.545  -5.247   8.369  1.00  0.00     0.305 C 
ATOM     14  O   UNL     1       5.556  -4.567   8.137  1.00  0.00    -0.252 OA
BRANCH  13  15
ATOM     15  O   UNL     1       6.605  -6.265   9.273  1.00  0.00    -0.469 OA
ATOM     16  C   UNL     1       6.589  -7.567   8.685  1.00  0.00     0.282 C 
ENDBRANCH  13  15
ENDBRANCH  12  13
ENDBRANCH   2  12
TORSDOF 7
ENDMDL
MODEL 2
REMARK VINA RESULT:    -5.327      1.426      4.085
REMARK INTER + INTRA:          -8.231
REMARK INTER:                  -7.609
REMARK INTRA:                  -0.622
REMARK UNBOUND:                -0.725
REMARK SMILES CCCCCC1C(=O)CCC1CC(=O)OC
REMARK SMILES IDX 6 1 11 2 10 3 9 4 7 5 8 6 5 7 4 8 3 9 2 10 1 11 12 12 13 13
REMARK SMILES IDX 14 14 15 15 16 16
REMARK H PARENT
ROOT
ATOM      1  C   UNL     1       8.900  -2.557   9.674  1.00  0.00     0.060 C 
ATOM      2  C   UNL     1       8.666  -3.925  10.353  1.00  0.00     0.011 C 
ATOM      3  C   UNL     1       7.366  -3.717  11.140  1.00  0.00     0.013 C 
ATOM      4  C   UNL     1       7.518  -2.338  11.762  1.00  0.00     0.076 C 
ATOM      5  C   UNL     1       8.323  -1.612  10.717  1.00  0.00     0.136 C 
ATOM      6  O   UNL     1       8.484  -0.398  10.720  1.00  0.00    -0.299 OA
ENDROOT
BRANCH   1   7
ATOM      7  C   UNL     1      10.381  -2.297   9.382  1.00  0.00     0.012 C 
BRANCH   7   8
ATOM      8  C   UNL     1      10.618  -1.841   7.937  1.00  0.00     0.001 C 
BRANCH   8   9
ATOM      9  C   UNL     1      10.186  -2.879   6.896  1.00  0.00    -0.000 C 
BRANCH   9  10
ATOM     10  C   UNL     1       9.126  -2.359   5.924  1.00  0.00    -0.003 C 
ATOM     11  C   UNL     1       8.459  -3.499   5.169  1.00  0.00     0.004 C 
ENDBRANCH   9  10
ENDBRANCH   8   9
ENDBRANCH   7   8
ENDBRANCH   1   7
BRANCH   2  12
ATOM     12  C   UNL     1       8.566  -5.073   9.342  1.00  0.00     0.127 C 
BRANCH  12  13
ATOM     13  C   UNL     1       7.139  -5.377   8.942  1.00  0.00     0.305 C 
ATOM     14  O   UNL     1       6.455  -4.699   8.190  1.00  0.00    -0.252 OA
BRANCH  13  15
ATOM     15  O   UNL     1       6.728  -6.517   9.565  1.00  0.00    -0.469 OA
ATOM     16  C   UNL     1       6.575  -7.635   8.689  1.00  0.00     0.282 C 
ENDBRANCH  13  15
ENDBRANCH  12  13
ENDBRANCH   2  12
TORSDOF 7
ENDMDL
MODEL 3
REMARK VINA RESULT:    -5.163      4.692      8.343
REMARK INTER + INTRA:          -8.000
REMARK INTER:                  -7.616
REMARK INTRA:                  -0.384
REMARK UNBOUND:                -0.725
REMARK SMILES CCCCCC1C(=O)CCC1CC(=O)OC
REMARK SMILES IDX 6 1 11 2 10 3 9 4 7 5 8 6 5 7 4 8 3 9 2 10 1 11 12 12 13 13
REMARK SMILES IDX 14 14 15 15 16 16
REMARK H PARENT
ROOT
ATOM      1  C   UNL     1       7.466  -0.821  15.039  1.00  0.00     0.060 C 
ATOM      2  C   UNL     1       6.542  -1.395  16.136  1.00  0.00     0.011 C 
ATOM      3  C   UNL     1       7.217  -0.955  17.441  1.00  0.00     0.013 C 
ATOM      4  C   UNL     1       8.700  -1.193  17.198  1.00  0.00     0.076 C 
ATOM      5  C   UNL     1       8.822  -0.913  15.723  1.00  0.00     0.136 C 
ATOM      6  O   UNL     1       9.898  -0.777  15.155  1.00  0.00    -0.299 OA
ENDROOT
BRANCH   1   7
ATOM      7  C   UNL     1       7.395  -1.624  13.736  1.00  0.00     0.012 C 
BRANCH   7   8
ATOM      8  C   UNL     1       7.310  -0.721  12.500  1.00  0.00     0.001 C 
BRANCH   8   9
ATOM      9  C   UNL     1       7.336  -1.499  11.180  1.00  0.00    -0.000 C 
BRANCH   9  10
ATOM     10  C   UNL     1       7.408  -3.014  11.370  1.00  0.00    -0.003 C 
ATOM     11  C   UNL     1       7.404  -3.742  10.033  1.00  0.00     0.004 C 
ENDBRANCH   9  10
ENDBRANCH   8   9
ENDBRANCH   7   8
ENDBRANCH   1   7
BRANCH   2  12
ATOM     12  C   UNL     1       5.101  -0.885  16.016  1.00  0.00     0.127 C 
BRANCH  12  13
ATOM     13  C   UNL     1       5.024   0.621  15.889  1.00  0.00     0.305 C 
ATOM     14  O   UNL     1       5.205   1.254  14.860  1.00  0.00    -0.252 OA
BRANCH  13  15
ATOM     15  O   UNL     1       4.737   1.164  17.106  1.00  0.00    -0.469 OA
ATOM     16  C   UNL     1       5.375   2.419  17.347  1.00  0.00     0.282 C 
ENDBRANCH  13  15
ENDBRANCH  12  13
ENDBRANCH   2  12
TORSDOF 7
ENDMDL
MODEL 4
REMARK VINA RESULT:    -5.081      4.067      8.485
REMARK INTER + INTRA:          -7.885
REMARK INTER:                  -7.333
REMARK INTRA:                  -0.552
REMARK UNBOUND:                -0.725
REMARK SMILES CCCCCC1C(=O)CCC1CC(=O)OC
REMARK SMILES IDX 6 1 11 2 10 3 9 4 7 5 8 6 5 7 4 8 3 9 2 10 1 11 12 12 13 13
REMARK SMILES IDX 14 14 15 15 16 16
REMARK H PARENT
ROOT
ATOM      1  C   UNL     1       7.725  -1.544  14.893  1.00  0.00     0.060 C 
ATOM      2  C   UNL     1       8.182  -0.363  15.780  1.00  0.00     0.011 C 
ATOM      3  C   UNL     1       7.986  -0.889  17.207  1.00  0.00     0.013 C 
ATOM      4  C   UNL     1       6.647  -1.609  17.164  1.00  0.00     0.076 C 
ATOM      5  C   UNL     1       6.630  -2.150  15.758  1.00  0.00     0.136 C 
ATOM      6  O   UNL     1       5.821  -2.984  15.372  1.00  0.00    -0.299 OA
ENDROOT
BRANCH   1   7
ATOM      7  C   UNL     1       7.221  -1.084  13.522  1.00  0.00     0.012 C 
BRANCH   7   8
ATOM      8  C   UNL     1       7.635  -2.042  12.398  1.00  0.00     0.001 C 
BRANCH   8   9
ATOM      9  C   UNL     1       7.216  -1.558  11.006  1.00  0.00    -0.000 C 
BRANCH   9  10
ATOM     10  C   UNL     1       7.255  -2.657   9.944  1.00  0.00    -0.003 C 
ATOM     11  C   UNL     1       7.572  -4.012  10.560  1.00  0.00     0.004 C 
ENDBRANCH   9  10
ENDBRANCH   8   9
ENDBRANCH   7   8
ENDBRANCH   1   7
BRANCH   2  12
ATOM     12  C   UNL     1       9.629   0.056  15.498  1.00  0.00     0.127 C 
BRANCH  12  13
ATOM     13  C   UNL     1       9.726   1.412  14.834  1.00  0.00     0.305 C 
ATOM     14  O   UNL     1       9.413   1.658  13.679  1.00  0.00    -0.252 OA
BRANCH  13  15
ATOM     15  O   UNL     1      10.233   2.315  15.720  1.00  0.00    -0.469 OA
ATOM     16  C   UNL     1      11.304   1.807  16.519  1.00  0.00     0.282 C 
ENDBRANCH  13  15
ENDBRANCH  12  13
ENDBRANCH   2  12
TORSDOF 7
ENDMDL
MODEL 5
REMARK VINA RESULT:    -5.077      2.257      3.443
REMARK INTER + INTRA:          -7.879
REMARK INTER:                  -7.697
REMARK INTRA:                  -0.182
REMARK UNBOUND:                -0.725
REMARK SMILES CCCCCC1C(=O)CCC1CC(=O)OC
REMARK SMILES IDX 6 1 11 2 10 3 9 4 7 5 8 6 5 7 4 8 3 9 2 10 1 11 12 12 13 13
REMARK SMILES IDX 14 14 15 15 16 16
REMARK H PARENT
ROOT
ATOM      1  C   UNL     1       8.518  -2.052  11.868  1.00  0.00     0.060 C 
ATOM      2  C   UNL     1       8.424  -2.845  10.545  1.00  0.00     0.011 C 
ATOM      3  C   UNL     1       9.480  -2.180   9.654  1.00  0.00     0.013 C 
ATOM      4  C   UNL     1       9.305  -0.691   9.906  1.00  0.00     0.076 C 
ATOM      5  C   UNL     1       8.885  -0.669  11.353  1.00  0.00     0.136 C 
ATOM      6  O   UNL     1       8.850   0.355  12.023  1.00  0.00    -0.299 OA
ENDROOT
BRANCH   1   7
ATOM      7  C   UNL     1       7.202  -2.070  12.654  1.00  0.00     0.012 C 
BRANCH   7   8
ATOM      8  C   UNL     1       7.384  -1.607  14.104  1.00  0.00     0.001 C 
BRANCH   8   9
ATOM      9  C   UNL     1       6.430  -2.298  15.084  1.00  0.00    -0.000 C 
BRANCH   9  10
ATOM     10  C   UNL     1       6.140  -1.470  16.336  1.00  0.00    -0.003 C 
ATOM     11  C   UNL     1       7.273  -1.578  17.347  1.00  0.00     0.004 C 
ENDBRANCH   9  10
ENDBRANCH   8   9
ENDBRANCH   7   8
ENDBRANCH   1   7
BRANCH   2  12
ATOM     12  C   UNL     1       8.677  -4.345  10.742  1.00  0.00     0.127 C 
BRANCH  12  13
ATOM     13  C   UNL     1       8.060  -5.189   9.648  1.00  0.00     0.305 C 
ATOM     14  O   UNL     1       8.240  -5.035   8.449  1.00  0.00    -0.252 OA
BRANCH  13  15
ATOM     15  O   UNL     1       7.257  -6.137  10.207  1.00  0.00    -0.469 OA
ATOM     16  C   UNL     1       6.598  -6.975   9.256  1.00  0.00     0.282 C 
ENDBRANCH  13  15
ENDBRANCH  12  13
ENDBRANCH   2  12
TORSDOF 7
ENDMDL
MODEL 6
REMARK VINA RESULT:    -5.032      4.000      7.149
REMARK INTER + INTRA:          -7.816
REMARK INTER:                  -6.678
REMARK INTRA:                  -1.138
REMARK UNBOUND:                -0.725
REMARK SMILES CCCCCC1C(=O)CCC1CC(=O)OC
REMARK SMILES IDX 6 1 11 2 10 3 9 4 7 5 8 6 5 7 4 8 3 9 2 10 1 11 12 12 13 13
REMARK SMILES IDX 14 14 15 15 16 16
REMARK H PARENT
ROOT
ATOM      1  C   UNL     1       7.579  -1.303  15.934  1.00  0.00     0.060 C 
ATOM      2  C   UNL     1       7.481  -0.906  14.444  1.00  0.00     0.011 C 
ATOM      3  C   UNL     1       8.816  -0.204  14.171  1.00  0.00     0.013 C 
ATOM      4  C   UNL     1       9.041   0.670  15.395  1.00  0.00     0.076 C 
ATOM      5  C   UNL     1       8.412  -0.156  16.486  1.00  0.00     0.136 C 
ATOM      6  O   UNL     1       8.565   0.082  17.677  1.00  0.00    -0.299 OA
ENDROOT
BRANCH   1   7
ATOM      7  C   UNL     1       6.204  -1.420  16.599  1.00  0.00     0.012 C 
BRANCH   7   8
ATOM      8  C   UNL     1       5.184  -0.441  16.005  1.00  0.00     0.001 C 
BRANCH   8   9
ATOM      9  C   UNL     1       5.080   0.872  16.787  1.00  0.00    -0.000 C 
BRANCH   9  10
ATOM     10  C   UNL     1       5.294   2.113  15.920  1.00  0.00    -0.003 C 
ATOM     11  C   UNL     1       5.221   1.774  14.438  1.00  0.00     0.004 C 
ENDBRANCH   9  10
ENDBRANCH   8   9
ENDBRANCH   7   8
ENDBRANCH   1   7
BRANCH   2  12
ATOM     12  C   UNL     1       7.251  -2.115  13.529  1.00  0.00     0.127 C 
BRANCH  12  13
ATOM     13  C   UNL     1       7.554  -1.814  12.078  1.00  0.00     0.305 C 
ATOM     14  O   UNL     1       6.956  -1.005  11.383  1.00  0.00    -0.252 OA
BRANCH  13  15
ATOM     15  O   UNL     1       8.586  -2.598  11.659  1.00  0.00    -0.469 OA
ATOM     16  C   UNL     1       9.566  -1.903  10.885  1.00  0.00     0.282 C 
ENDBRANCH  13  15
ENDBRANCH  12  13
ENDBRANCH   2  12
TORSDOF 7
ENDMDL
MODEL 7
REMARK VINA RESULT:    -4.983      3.890      6.969
REMARK INTER + INTRA:          -7.747
REMARK INTER:                  -6.899
REMARK INTRA:                  -0.848
REMARK UNBOUND:                -0.725
REMARK SMILES CCCCCC1C(=O)CCC1CC(=O)OC
REMARK SMILES IDX 6 1 11 2 10 3 9 4 7 5 8 6 5 7 4 8 3 9 2 10 1 11 12 12 13 13
REMARK SMILES IDX 14 14 15 15 16 16
REMARK H PARENT
ROOT
ATOM      1  C   UNL     1       6.873  -0.483  15.056  1.00  0.00     0.060 C 
ATOM      2  C   UNL     1       7.211  -0.631  13.555  1.00  0.00     0.011 C 
ATOM      3  C   UNL     1       7.160   0.810  13.032  1.00  0.00     0.013 C 
ATOM      4  C   UNL     1       5.930   1.409  13.695  1.00  0.00     0.076 C 
ATOM      5  C   UNL     1       5.914   0.698  15.023  1.00  0.00     0.136 C 
ATOM      6  O   UNL     1       5.205   1.045  15.959  1.00  0.00    -0.299 OA
ENDROOT
BRANCH   1   7
ATOM      7  C   UNL     1       6.243  -1.751  15.640  1.00  0.00     0.012 C 
BRANCH   7   8
ATOM      8  C   UNL     1       6.637  -1.976  17.105  1.00  0.00     0.001 C 
BRANCH   8   9
ATOM      9  C   UNL     1       7.928  -1.252  17.502  1.00  0.00    -0.000 C 
BRANCH   9  10
ATOM     10  C   UNL     1       7.694  -0.056  18.424  1.00  0.00    -0.003 C 
ATOM     11  C   UNL     1       8.420   1.184  17.920  1.00  0.00     0.004 C 
ENDBRANCH   9  10
ENDBRANCH   8   9
ENDBRANCH   7   8
ENDBRANCH   1   7
BRANCH   2  12
ATOM     12  C   UNL     1       8.574  -1.295  13.324  1.00  0.00     0.127 C 
BRANCH  12  13
ATOM     13  C   UNL     1       8.674  -1.966  11.972  1.00  0.00     0.305 C 
ATOM     14  O   UNL     1       9.600  -1.836  11.184  1.00  0.00    -0.252 OA
BRANCH  13  15
ATOM     15  O   UNL     1       7.563  -2.726  11.760  1.00  0.00    -0.469 OA
ATOM     16  C   UNL     1       7.410  -3.167  10.410  1.00  0.00     0.282 C 
ENDBRANCH  13  15
ENDBRANCH  12  13
ENDBRANCH   2  12
TORSDOF 7
ENDMDL
MODEL 8
REMARK VINA RESULT:    -4.928      6.616      9.316
REMARK INTER + INTRA:          -7.670
REMARK INTER:                  -6.574
REMARK INTRA:                  -1.096
REMARK UNBOUND:                -0.725
REMARK SMILES CCCCCC1C(=O)CCC1CC(=O)OC
REMARK SMILES IDX 6 1 11 2 10 3 9 4 7 5 8 6 5 7 4 8 3 9 2 10 1 11 12 12 13 13
REMARK SMILES IDX 14 14 15 15 16 16
REMARK H PARENT
ROOT
ATOM      1  C   UNL     1       7.801  -1.225  15.052  1.00  0.00     0.060 C 
ATOM      2  C   UNL     1       8.337  -0.262  16.135  1.00  0.00     0.011 C 
ATOM      3  C   UNL     1       8.202  -1.070  17.432  1.00  0.00     0.013 C 
ATOM      4  C   UNL     1       6.842  -1.743  17.318  1.00  0.00     0.076 C 
ATOM      5  C   UNL     1       6.737  -1.979  15.834  1.00  0.00     0.136 C 
ATOM      6  O   UNL     1       5.885  -2.701  15.331  1.00  0.00    -0.299 OA
ENDROOT
BRANCH   1   7
ATOM      7  C   UNL     1       7.239  -0.482  13.836  1.00  0.00     0.012 C 
BRANCH   7   8
ATOM      8  C   UNL     1       7.019   1.010  14.116  1.00  0.00     0.001 C 
BRANCH   8   9
ATOM      9  C   UNL     1       5.541   1.388  14.252  1.00  0.00    -0.000 C 
BRANCH   9  10
ATOM     10  C   UNL     1       5.006   1.246  15.678  1.00  0.00    -0.003 C 
ATOM     11  C   UNL     1       5.661   2.248  16.618  1.00  0.00     0.004 C 
ENDBRANCH   9  10
ENDBRANCH   8   9
ENDBRANCH   7   8
ENDBRANCH   1   7
BRANCH   2  12
ATOM     12  C   UNL     1       9.780   0.182  15.864  1.00  0.00     0.127 C 
BRANCH  12  13
ATOM     13  C   UNL     1      10.126   1.488  16.543  1.00  0.00     0.305 C 
ATOM     14  O   UNL     1       9.350   2.413  16.735  1.00  0.00    -0.252 OA
BRANCH  13  15
ATOM     15  O   UNL     1      11.443   1.481  16.894  1.00  0.00    -0.469 OA
ATOM     16  C   UNL     1      11.821   2.560  17.751  1.00  0.00     0.282 C 
ENDBRANCH  13  15
ENDBRANCH  12  13
ENDBRANCH   2  12
TORSDOF 7
ENDMDL
MODEL 9
REMARK VINA RESULT:    -4.843      4.241      7.286
REMARK INTER + INTRA:          -7.550
REMARK INTER:                  -6.964
REMARK INTRA:                  -0.586
REMARK UNBOUND:                -0.725
REMARK SMILES CCCCCC1C(=O)CCC1CC(=O)OC
REMARK SMILES IDX 6 1 11 2 10 3 9 4 7 5 8 6 5 7 4 8 3 9 2 10 1 11 12 12 13 13
REMARK SMILES IDX 14 14 15 15 16 16
REMARK H PARENT
ROOT
ATOM      1  C   UNL     1       7.456  -0.244  13.465  1.00  0.00     0.060 C 
ATOM      2  C   UNL     1       7.835  -1.301  14.527  1.00  0.00     0.011 C 
ATOM      3  C   UNL     1       8.629  -0.497  15.564  1.00  0.00     0.013 C 
ATOM      4  C   UNL     1       9.524   0.411  14.735  1.00  0.00     0.076 C 
ATOM      5  C   UNL     1       8.662   0.680  13.530  1.00  0.00     0.136 C 
ATOM      6  O   UNL     1       8.918   1.549  12.706  1.00  0.00    -0.299 OA
ENDROOT
BRANCH   1   7
ATOM      7  C   UNL     1       7.245  -0.859  12.078  1.00  0.00     0.012 C 
BRANCH   7   8
ATOM      8  C   UNL     1       8.202  -2.027  11.808  1.00  0.00     0.001 C 
BRANCH   8   9
ATOM      9  C   UNL     1       7.530  -3.209  11.101  1.00  0.00    -0.000 C 
BRANCH   9  10
ATOM     10  C   UNL     1       8.524  -4.179  10.463  1.00  0.00    -0.003 C 
ATOM     11  C   UNL     1       9.947  -3.644  10.536  1.00  0.00     0.004 C 
ENDBRANCH   9  10
ENDBRANCH   8   9
ENDBRANCH   7   8
ENDBRANCH   1   7
BRANCH   2  12
ATOM     12  C   UNL     1       6.608  -1.994  15.129  1.00  0.00     0.127 C 
BRANCH  12  13
ATOM     13  C   UNL     1       6.078  -1.281  16.354  1.00  0.00     0.305 C 
ATOM     14  O   UNL     1       6.381  -1.539  17.510  1.00  0.00    -0.252 OA
BRANCH  13  15
ATOM     15  O   UNL     1       5.195  -0.316  15.970  1.00  0.00    -0.469 OA
ATOM     16  C   UNL     1       5.359   0.927  16.656  1.00  0.00     0.282 C 
ENDBRANCH  13  15
ENDBRANCH  12  13
ENDBRANCH   2  12
TORSDOF 7
ENDMDL
